  
       XFOIL         Version 6.99
  
 Calculated polar for: Repaneled_Airfoil                               
  
 1 1 Reynolds number fixed          Mach number fixed         
  
 xtrf =   1.000 (top)        1.000 (bottom)  
 Mach =   0.000     Re =     1.000 e 6     Ncrit =   9.000  9.000
  
   alpha    CL        CD       CDp       CM     Top_Xtr  Bot_Xtr  Top_Itr  Bot_Itr
  ------ -------- --------- --------- -------- -------- -------- -------- --------
  -5.000  -0.5305   0.01077   0.00270   0.0397   0.6939   0.1689  56.9180 191.2903
  -4.915  -0.5209   0.01074   0.00268   0.0398   0.6933   0.1697  56.9846 191.3963
  -4.829  -0.5112   0.01071   0.00268   0.0399   0.6922   0.1705  57.0965 191.4990
  -4.744  -0.5015   0.01068   0.00267   0.0399   0.6909   0.1713  57.2241 191.5965
  -4.658  -0.4919   0.01065   0.00266   0.0400   0.6897   0.1721  57.3468 191.6950
  -4.573  -0.4822   0.01062   0.00264   0.0401   0.6886   0.1729  57.4621 191.7958
  -4.487  -0.4725   0.01060   0.00261   0.0401   0.6875   0.1736  57.5749 191.8919
  -4.402  -0.4627   0.01058   0.00259   0.0402   0.6864   0.1743  57.6847 191.9735
  -4.317  -0.4534   0.01049   0.00254   0.0403   0.6854   0.1750  57.7920 192.0697
  -4.231  -0.4440   0.01041   0.00250   0.0404   0.6843   0.1758  57.8987 192.1615
  -4.146  -0.4345   0.01034   0.00246   0.0405   0.6833   0.1764  58.0091 192.2382
  -4.060  -0.4249   0.01029   0.00245   0.0406   0.6814   0.1769  58.2009 192.3064
  -3.975  -0.4153   0.01024   0.00243   0.0406   0.6795   0.1774  58.3954 192.3685
  -3.889  -0.4058   0.01018   0.00239   0.0407   0.6776   0.1779  58.5841 192.4281
  -3.804  -0.3962   0.01013   0.00235   0.0408   0.6758   0.1784  58.7698 192.4880
  -3.719  -0.3867   0.01007   0.00229   0.0409   0.6740   0.1789  58.9516 192.5521
  -3.633  -0.3770   0.01002   0.00227   0.0409   0.6713   0.1794  59.2294 192.6227
  -3.548  -0.3674   0.00998   0.00224   0.0410   0.6679   0.1800  59.5727 192.6958
  -3.462  -0.3578   0.00992   0.00218   0.0411   0.6645   0.1806  59.9086 192.7667
  -3.377  -0.3482   0.00988   0.00214   0.0411   0.6605   0.1811  60.3083 192.8316
  -3.292  -0.3386   0.00983   0.00209   0.0412   0.6556   0.1816  60.8011 192.8872
  -3.206  -0.3290   0.00979   0.00204   0.0413   0.6493   0.1819  61.4370 192.9326
  -3.121  -0.3194   0.00975   0.00197   0.0414   0.6395   0.1822  62.4102 192.9709
  -3.035  -0.3101   0.00971   0.00188   0.0415   0.6209   0.1825  64.2427 193.0086
  -2.950  -0.3037   0.01041   0.00190   0.0417   0.4101   0.1830  84.5013 193.0644
  -2.864  -0.2950   0.01056   0.00194   0.0418   0.3663   0.1834  88.7862 193.1194
  -2.779  -0.2858   0.01058   0.00194   0.0418   0.3525   0.1839  90.1587 193.1735
  -2.608  -0.2671   0.01059   0.00193   0.0419   0.3389   0.1847  91.5289 193.2792
  -2.523  -0.2577   0.01060   0.00193   0.0420   0.3346   0.1852  91.9613 193.3303
  -2.437  -0.2482   0.01059   0.00192   0.0420   0.3314   0.1856  92.2849 193.3814
  -2.352  -0.2388   0.01058   0.00192   0.0421   0.3286   0.1860  92.5701 193.4366
  -2.266  -0.2293   0.01058   0.00191   0.0421   0.3262   0.1865  92.8158 193.4953
  -2.181  -0.2198   0.01058   0.00190   0.0422   0.3241   0.1870  93.0239 193.5564
  -2.095  -0.2103   0.01057   0.00190   0.0422   0.3224   0.1875  93.1942 193.6188
  -2.010  -0.2008   0.01056   0.00189   0.0422   0.3209   0.1880  93.3572 193.6805
  -1.925  -0.1913   0.01055   0.00188   0.0423   0.3194   0.1885  93.5101 193.7399
  -1.839  -0.1818   0.01055   0.00188   0.0423   0.3180   0.1889  93.6513 193.7951
  -1.754  -0.1723   0.01055   0.00187   0.0424   0.3167   0.1893  93.7832 193.8444
  -1.668  -0.1628   0.01055   0.00186   0.0424   0.3154   0.1897  93.9168 193.8901
  -1.583  -0.1533   0.01055   0.00186   0.0424   0.3141   0.1901  94.0491 193.9326
  -1.498  -0.1438   0.01054   0.00185   0.0425   0.3128   0.1904  94.1834 193.9711
  -1.412  -0.1343   0.01053   0.00184   0.0425   0.3113   0.1907  94.3329 194.0111
  -1.327  -0.1250   0.01049   0.00183   0.0426   0.3098   0.1913  94.4869 194.0789
  -1.241  -0.1157   0.01046   0.00182   0.0427   0.3084   0.1918  94.6380 194.1435
  -1.156  -0.1064   0.01045   0.00181   0.0427   0.3070   0.1923  94.7764 194.2050
  -1.070  -0.0970   0.01044   0.00181   0.0428   0.3058   0.1928  94.9085 194.2653
  -0.985  -0.0876   0.01044   0.00180   0.0428   0.3046   0.1933  95.0302 194.3256
  -0.899  -0.0781   0.01042   0.00180   0.0429   0.3036   0.1938  95.1319 194.3857
  -0.814  -0.0687   0.01040   0.00179   0.0429   0.3026   0.1943  95.2388 194.4450
  -0.729  -0.0592   0.01039   0.00178   0.0429   0.3015   0.1948  95.3487 194.5031
  -0.643  -0.0497   0.01038   0.00178   0.0430   0.3005   0.1952  95.4560 194.5614
  -0.558  -0.0402   0.01037   0.00177   0.0430   0.2996   0.1957  95.5498 194.6202
  -0.472  -0.0308   0.01037   0.00177   0.0430   0.2988   0.1962  95.6327 194.6785
  -0.387  -0.0213   0.01037   0.00176   0.0431   0.2980   0.1967  95.7183 194.7375
  -0.301  -0.0119   0.01037   0.00176   0.0431   0.2970   0.1972  95.8179 194.7947
  -0.216  -0.0025   0.01038   0.00176   0.0431   0.2959   0.1976  95.9301 194.8493
  -0.131   0.0070   0.01039   0.00175   0.0432   0.2949   0.1981  96.0353 194.9018
  -0.045   0.0166   0.01038   0.00175   0.0432   0.2940   0.1985  96.1274 194.9500
   0.040   0.0261   0.01037   0.00174   0.0432   0.2931   0.1988  96.2220 194.9925
   0.126   0.0355   0.01035   0.00174   0.0433   0.2922   0.1994  96.3222 195.0663
   0.211   0.0448   0.01032   0.00173   0.0433   0.2912   0.2001  96.4225 195.1440
   0.296   0.0541   0.01030   0.00172   0.0433   0.2903   0.2007  96.5206 195.2171
   0.382   0.0635   0.01029   0.00172   0.0434   0.2894   0.2013  96.6097 195.2884
   0.467   0.0729   0.01028   0.00171   0.0434   0.2886   0.2019  96.7015 195.3634
   0.553   0.0823   0.01029   0.00171   0.0435   0.2875   0.2026  96.8091 195.4447
   0.638   0.0916   0.01030   0.00171   0.0435   0.2864   0.2033  96.9340 195.5305
   0.724   0.1010   0.01030   0.00171   0.0435   0.2852   0.2041  97.0509 195.6196
   0.809   0.1105   0.01028   0.00170   0.0435   0.2842   0.2048  97.1646 195.7083
   0.894   0.1200   0.01027   0.00169   0.0436   0.2830   0.2056  97.2924 195.7935
   0.980   0.1295   0.01026   0.00169   0.0436   0.2817   0.2062  97.4249 195.8717
   1.065   0.1390   0.01026   0.00168   0.0436   0.2804   0.2068  97.5610 195.9418
   1.236   0.1577   0.01026   0.00167   0.0436   0.2779   0.2082  97.8255 196.1053
   1.322   0.1670   0.01027   0.00167   0.0437   0.2766   0.2090  97.9700 196.2033
   1.407   0.1764   0.01025   0.00166   0.0437   0.2754   0.2099  98.0984 196.3022
   1.492   0.1859   0.01023   0.00165   0.0437   0.2739   0.2107  98.2523 196.4013
   1.578   0.1953   0.01021   0.00164   0.0438   0.2723   0.2116  98.4262 196.5044
   1.663   0.2047   0.01021   0.00164   0.0438   0.2705   0.2125  98.6200 196.6112
   1.749   0.2141   0.01021   0.00163   0.0438   0.2686   0.2135  98.8243 196.7211
   1.834   0.2235   0.01022   0.00162   0.0438   0.2667   0.2144  99.0313 196.8322
   1.920   0.2330   0.01020   0.00161   0.0438   0.2647   0.2153  99.2502 196.9428
   2.091   0.2518   0.01018   0.00158   0.0439   0.2595   0.2179  99.8098 197.2425
   2.176   0.2611   0.01018   0.00157   0.0439   0.2568   0.2195 100.1070 197.4255
   2.261   0.2705   0.01015   0.00155   0.0439   0.2531   0.2213 100.5060 197.6313
   2.347   0.2797   0.01016   0.00153   0.0439   0.2484   0.2233 101.0191 197.8655
   2.518   0.2979   0.01014   0.00148   0.0440   0.2304   0.2308 103.0347 198.7206
   2.603   0.3030   0.01068   0.00164   0.0444   0.1337   0.2403 115.0930 199.7846
   2.688   0.3062   0.01041   0.00167   0.0454   0.1241   0.3678 116.4708 213.1037
   2.774   0.3138   0.01042   0.00173   0.0457   0.1173   0.3976 117.4603 216.0312
   2.859   0.3220   0.01044   0.00177   0.0459   0.1125   0.4185 118.1783 218.0629
   2.945   0.3306   0.01047   0.00181   0.0460   0.1084   0.4326 118.8030 219.4324
   3.030   0.3393   0.01050   0.00185   0.0461   0.1049   0.4444 119.3456 220.5680
   3.116   0.3482   0.01054   0.00188   0.0462   0.1015   0.4547 119.8798 221.5586
   3.201   0.3571   0.01057   0.00191   0.0463   0.0985   0.4640 120.3656 222.4542
   3.286   0.3660   0.01061   0.00194   0.0463   0.0954   0.4725 120.8552 223.2706
   3.372   0.3751   0.01065   0.00197   0.0463   0.0927   0.4806 121.2983 224.0428
   3.457   0.3841   0.01069   0.00200   0.0464   0.0901   0.4881 121.7380 224.7627
   3.543   0.3932   0.01073   0.00203   0.0464   0.0877   0.4949 122.1336 225.4070
   3.714   0.4113   0.01082   0.00208   0.0465   0.0830   0.5077 122.9330 226.6340
   3.799   0.4205   0.01085   0.00211   0.0465   0.0809   0.5135 123.2991 227.1858
   3.884   0.4297   0.01089   0.00213   0.0465   0.0788   0.5192 123.6842 227.7359
   3.970   0.4387   0.01095   0.00216   0.0465   0.0768   0.5250 124.0370 228.2928
   4.055   0.4479   0.01098   0.00219   0.0465   0.0748   0.5311 124.3866 228.8736
   4.141   0.4570   0.01102   0.00221   0.0465   0.0729   0.5364 124.7369 229.3795
   4.226   0.4661   0.01108   0.00224   0.0465   0.0712   0.5419 125.0568 229.9142
   4.312   0.4753   0.01111   0.00227   0.0465   0.0695   0.5473 125.3729 230.4296
   4.397   0.4844   0.01116   0.00230   0.0465   0.0678   0.5530 125.6922 230.9763
   4.482   0.4933   0.01123   0.00233   0.0465   0.0662   0.5586 126.0015 231.5192
   4.568   0.5026   0.01125   0.00236   0.0465   0.0646   0.5647 126.2995 232.1044
   4.653   0.5116   0.01129   0.00238   0.0465   0.0630   0.5714 126.6246 232.7461
   4.739   0.5206   0.01135   0.00241   0.0465   0.0614   0.5781 126.9340 233.3938
   4.824   0.5296   0.01138   0.00244   0.0465   0.0599   0.5856 127.2268 234.1221
   4.910   0.5386   0.01141   0.00246   0.0465   0.0584   0.5945 127.5396 234.9822
   4.995   0.5474   0.01144   0.00248   0.0465   0.0569   0.6057 127.8343 236.0781
   5.080   0.5559   0.01144   0.00250   0.0466   0.0556   0.6222 128.1060 237.6939
   5.166   0.5604   0.01094   0.00234   0.0473   0.0546   0.7324 128.3188 248.9706
   5.251   0.5664   0.01082   0.00247   0.0481   0.0535   0.8397 128.5620 261.5600
   5.337   0.5754   0.01091   0.00253   0.0481   0.0522   0.8473 128.8309 262.5567
   5.422   0.5844   0.01101   0.00260   0.0481   0.0510   0.8527 129.0882 263.2794
   5.508   0.5937   0.01108   0.00265   0.0481   0.0498   0.8572 129.3459 263.8867
   5.593   0.6028   0.01117   0.00270   0.0481   0.0486   0.8603 129.6098 264.3167
   5.678   0.6119   0.01127   0.00276   0.0481   0.0475   0.8632 129.8576 264.7184
   5.764   0.6211   0.01137   0.00282   0.0480   0.0465   0.8657 130.0900 265.0661
   5.849   0.6302   0.01145   0.00288   0.0480   0.0455   0.8678 130.3175 265.3645
   5.935   0.6394   0.01154   0.00293   0.0480   0.0445   0.8699 130.5518 265.6660
   6.020   0.6486   0.01165   0.00298   0.0479   0.0435   0.8719 130.7737 265.9529
   6.106   0.6574   0.01178   0.00306   0.0479   0.0425   0.8735 131.0009 266.1751
   6.191   0.6666   0.01186   0.00312   0.0479   0.0418   0.8750 131.1821 266.4036
   6.276   0.6758   0.01196   0.00317   0.0479   0.0409   0.8766 131.3848 266.6331
   6.362   0.6849   0.01206   0.00323   0.0478   0.0401   0.8781 131.5871 266.8501
   6.447   0.6940   0.01218   0.00329   0.0477   0.0393   0.8794 131.7810 267.0348
   6.533   0.7026   0.01233   0.00338   0.0478   0.0385   0.8804 131.9876 267.1807
   6.618   0.7117   0.01242   0.00344   0.0477   0.0378   0.8814 132.1441 267.3347
   6.704   0.7208   0.01252   0.00350   0.0477   0.0371   0.8825 132.3215 267.4955
   6.789   0.7298   0.01262   0.00356   0.0477   0.0364   0.8836 132.5000 267.6599
   6.874   0.7389   0.01273   0.00362   0.0476   0.0358   0.8847 132.6725 267.8265
   6.960   0.7478   0.01286   0.00369   0.0475   0.0351   0.8858 132.8398 267.9877
   7.045   0.7563   0.01303   0.00378   0.0476   0.0344   0.8866 133.0155 268.1062
   7.131   0.7653   0.01312   0.00385   0.0475   0.0339   0.8874 133.1532 268.2296
   7.216   0.7742   0.01322   0.00392   0.0475   0.0333   0.8883 133.3115 268.3654
   7.301   0.7831   0.01332   0.00398   0.0475   0.0327   0.8893 133.4732 268.5182
   7.387   0.7920   0.01344   0.00405   0.0474   0.0321   0.8903 133.6330 268.6778
   7.472   0.8007   0.01358   0.00412   0.0474   0.0315   0.8914 133.7902 268.8373
   7.558   0.8092   0.01376   0.00421   0.0473   0.0309   0.8923 133.9626 268.9883
   7.643   0.8179   0.01388   0.00429   0.0473   0.0304   0.8930 134.0883 269.0937
   7.729   0.8266   0.01399   0.00437   0.0473   0.0300   0.8937 134.2202 269.1997
   7.814   0.8353   0.01410   0.00444   0.0473   0.0295   0.8944 134.3646 269.3110
   7.899   0.8440   0.01422   0.00451   0.0473   0.0290   0.8951 134.5089 269.4265
   7.985   0.8526   0.01436   0.00459   0.0473   0.0285   0.8959 134.6494 269.5488
   8.070   0.8611   0.01451   0.00467   0.0472   0.0280   0.8967 134.7862 269.6776
   8.156   0.8692   0.01472   0.00478   0.0472   0.0275   0.8976 134.9363 269.8094
   8.241   0.8777   0.01488   0.00488   0.0472   0.0270   0.8984 135.0573 269.9392
   8.327   0.8864   0.01499   0.00495   0.0471   0.0267   0.8991 135.1672 270.0465
   8.412   0.8950   0.01511   0.00503   0.0471   0.0263   0.8996 135.2904 270.1335
   8.498   0.9034   0.01523   0.00511   0.0471   0.0259   0.9002 135.4161 270.2244
   8.583   0.9118   0.01537   0.00519   0.0471   0.0255   0.9008 135.5377 270.3149
   8.668   0.9202   0.01551   0.00527   0.0471   0.0251   0.9013 135.6534 270.4038
   8.754   0.9285   0.01566   0.00536   0.0470   0.0247   0.9019 135.7652 270.4972
   8.839   0.9365   0.01585   0.00546   0.0470   0.0243   0.9025 135.8783 270.5956
   8.925   0.9439   0.01611   0.00561   0.0470   0.0239   0.9031 136.0029 270.6969
   9.010   0.9525   0.01624   0.00569   0.0470   0.0237   0.9038 136.0789 270.8014
   9.095   0.9609   0.01638   0.00577   0.0469   0.0234   0.9044 136.1666 270.9091
   9.181   0.9693   0.01653   0.00586   0.0468   0.0231   0.9051 136.2594 271.0128
   9.266   0.9773   0.01668   0.00596   0.0468   0.0228   0.9055 136.3509 271.0877
   9.352   0.9852   0.01684   0.00606   0.0468   0.0226   0.9060 136.4399 271.1657
   9.437   0.9932   0.01700   0.00615   0.0468   0.0223   0.9065 136.5246 271.2442
   9.523   1.0010   0.01717   0.00625   0.0468   0.0220   0.9070 136.6057 271.3273
   9.608   1.0088   0.01735   0.00636   0.0468   0.0218   0.9075 136.6852 271.4198
   9.694   1.0164   0.01755   0.00648   0.0468   0.0216   0.9082 136.7643 271.5220
   9.779   1.0237   0.01779   0.00661   0.0468   0.0213   0.9088 136.8462 271.6333
   9.864   1.0305   0.01807   0.00678   0.0468   0.0210   0.9096 136.9352 271.7540
   9.950   1.0372   0.01837   0.00695   0.0468   0.0208   0.9103 137.0143 271.8770
  10.035   1.0451   0.01855   0.00706   0.0467   0.0206   0.9110 137.0644 271.9920
  10.121   1.0526   0.01873   0.00719   0.0467   0.0205   0.9115 137.1208 272.0694
  10.206   1.0599   0.01893   0.00732   0.0467   0.0203   0.9119 137.1823 272.1426
  10.291   1.0673   0.01914   0.00745   0.0467   0.0201   0.9123 137.2473 272.2129
  10.377   1.0746   0.01936   0.00759   0.0466   0.0199   0.9127 137.3140 272.2856
  10.462   1.0818   0.01959   0.00774   0.0466   0.0197   0.9132 137.3810 272.3650
  10.548   1.0889   0.01983   0.00789   0.0465   0.0195   0.9137 137.4472 272.4571
  10.633   1.0960   0.02007   0.00804   0.0464   0.0193   0.9143 137.5121 272.5610
  10.719   1.1030   0.02033   0.00820   0.0462   0.0192   0.9150 137.5754 272.6761
  10.804   1.1098   0.02060   0.00837   0.0461   0.0190   0.9157 137.6373 272.8024
  10.889   1.1165   0.02089   0.00854   0.0460   0.0188   0.9165 137.6992 272.9321
  10.975   1.1221   0.02120   0.00873   0.0459   0.0186   0.9171 137.7582 273.0432
  11.060   1.1259   0.02153   0.00894   0.0462   0.0185   0.9177 137.8138 273.1420
  11.146   1.1298   0.02195   0.00922   0.0462   0.0183   0.9183 137.8741 273.2466
  11.231   1.1331   0.02247   0.00956   0.0462   0.0181   0.9189 137.9408 273.3535
  11.317   1.1362   0.02302   0.00992   0.0462   0.0179   0.9195 138.0057 273.4581
  11.402   1.1423   0.02329   0.01011   0.0462   0.0178   0.9200 138.0419 273.5457
  11.487   1.1483   0.02358   0.01030   0.0461   0.0177   0.9205 138.0845 273.6312
  11.573   1.1541   0.02387   0.01050   0.0461   0.0176   0.9210 138.1328 273.7191
  11.658   1.1598   0.02419   0.01071   0.0461   0.0174   0.9215 138.1856 273.8110
  11.744   1.1653   0.02451   0.01093   0.0460   0.0173   0.9220 138.2413 273.9073
  11.829   1.1707   0.02485   0.01115   0.0460   0.0171   0.9226 138.2990 274.0048
  11.915   1.1755   0.02518   0.01138   0.0461   0.0170   0.9230 138.3560 274.0807
  12.000   1.1803   0.02553   0.01161   0.0461   0.0168   0.9235 138.4126 274.1630
