  
       XFOIL         Version 6.99
  
 Calculated polar for: Repaneled_Airfoil                               
  
 1 1 Reynolds number fixed          Mach number fixed         
  
 xtrf =   1.000 (top)        1.000 (bottom)  
 Mach =   0.000     Re =     1.000 e 6     Ncrit =   9.000  9.000
  
   alpha    CL        CD       CDp       CM     Top_Xtr  Bot_Xtr  Top_Itr  Bot_Itr
  ------ -------- --------- --------- -------- -------- -------- -------- --------
  -5.000  -0.6795   0.01109   0.00311   0.0033   0.9947   0.0345   7.9903 168.9922
  -4.915  -0.6668   0.01098   0.00306   0.0027   0.9939   0.0354   8.4627 169.2113
  -4.829  -0.6529   0.01089   0.00301   0.0017   0.9933   0.0364   8.8533 169.4576
  -4.744  -0.6393   0.01081   0.00295   0.0009   0.9925   0.0373   9.2981 169.7081
  -4.658  -0.6255   0.01073   0.00291  -0.0001   0.9917   0.0383   9.7177 169.9462
  -4.573  -0.6112   0.01063   0.00285  -0.0011   0.9911   0.0394  10.0528 170.2160
  -4.487  -0.5981   0.01053   0.00279  -0.0019   0.9901   0.0407  10.5537 170.5321
  -4.402  -0.5835   0.01045   0.00274  -0.0030   0.9894   0.0422  10.8907 170.9012
  -4.317  -0.5706   0.01034   0.00269  -0.0037   0.9884   0.0438  11.3495 171.2672
  -4.231  -0.5571   0.01025   0.00264  -0.0046   0.9875   0.0456  11.7152 171.6919
  -4.146  -0.5429   0.01017   0.00260  -0.0056   0.9869   0.0475  11.9729 172.1111
  -4.060  -0.5313   0.01007   0.00255  -0.0060   0.9857   0.0493  12.4601 172.5130
  -3.975  -0.5177   0.01000   0.00251  -0.0069   0.9849   0.0513  12.7845 172.9437
  -3.889  -0.5042   0.00989   0.00245  -0.0077   0.9842   0.0532  13.0682 173.3657
  -3.804  -0.4924   0.00981   0.00241  -0.0082   0.9828   0.0551  13.5746 173.7672
  -3.719  -0.4780   0.00971   0.00235  -0.0093   0.9820   0.0571  13.8976 174.1793
  -3.633  -0.4660   0.00961   0.00229  -0.0098   0.9804   0.0589  14.4501 174.5446
  -3.548  -0.4516   0.00952   0.00223  -0.0108   0.9792   0.0608  14.8532 174.9255
  -3.462  -0.4397   0.00941   0.00217  -0.0113   0.9774   0.0625  15.4467 175.2585
  -3.377  -0.4255   0.00930   0.00210  -0.0123   0.9760   0.0645  15.8993 175.6437
  -3.292  -0.4142   0.00922   0.00204  -0.0126   0.9737   0.0661  16.5878 175.9694
  -3.206  -0.4013   0.00910   0.00198  -0.0133   0.9718   0.0681  17.1620 176.3293
  -3.121  -0.3895   0.00900   0.00191  -0.0138   0.9691   0.0700  17.9180 176.6983
  -3.035  -0.3795   0.00892   0.00185  -0.0138   0.9655   0.0718  18.8817 177.0321
  -2.864  -0.3626   0.00874   0.00174  -0.0132   0.9546   0.0755  21.5413 177.7117
  -2.779  -0.3513   0.00865   0.00168  -0.0135   0.9463   0.0777  23.3794 178.0959
  -2.693  -0.3101   0.00851   0.00135  -0.0202   0.8312   0.0830  41.4990 179.0381
  -2.608  -0.3070   0.00883   0.00136  -0.0187   0.7595   0.0846  50.0179 179.3031
  -2.523  -0.2991   0.00888   0.00136  -0.0184   0.7424   0.0868  51.8995 179.6710
  -2.352  -0.2818   0.00890   0.00134  -0.0180   0.7185   0.0912  54.4788 180.4230
  -2.266  -0.2729   0.00889   0.00133  -0.0178   0.7077   0.0938  55.6158 180.8448
  -2.181  -0.2641   0.00888   0.00131  -0.0176   0.6972   0.0962  56.7106 181.2401
  -2.095  -0.2551   0.00887   0.00129  -0.0175   0.6866   0.0989  57.8159 181.6710
  -2.010  -0.2461   0.00887   0.00127  -0.0173   0.6757   0.1014  58.9279 182.0740
  -1.925  -0.2372   0.00885   0.00125  -0.0172   0.6648   0.1041  60.0377 182.4869
  -1.839  -0.2282   0.00885   0.00123  -0.0171   0.6537   0.1068  61.1531 182.9143
  -1.754  -0.2192   0.00883   0.00121  -0.0169   0.6428   0.1096  62.2466 183.3381
  -1.668  -0.2101   0.00882   0.00119  -0.0168   0.6321   0.1127  63.3129 183.8110
  -1.583  -0.2010   0.00881   0.00116  -0.0167   0.6217   0.1157  64.3439 184.2631
  -1.498  -0.1919   0.00880   0.00114  -0.0166   0.6116   0.1191  65.3385 184.7671
  -1.412  -0.1828   0.00879   0.00112  -0.0165   0.6017   0.1225  66.3032 185.2565
  -1.327  -0.1737   0.00877   0.00110  -0.0164   0.5920   0.1263  67.2466 185.8034
  -1.241  -0.1645   0.00876   0.00108  -0.0163   0.5825   0.1300  68.1766 186.3408
  -1.156  -0.1553   0.00875   0.00106  -0.0162   0.5729   0.1343  69.1015 186.9480
  -1.070  -0.1462   0.00872   0.00103  -0.0161   0.5635   0.1390  70.0109 187.5989
  -0.985  -0.1370   0.00870   0.00101  -0.0161   0.5542   0.1445  70.9091 188.3515
  -0.899  -0.1278   0.00866   0.00099  -0.0160   0.5451   0.1513  71.7752 189.2617
  -0.814  -0.1187   0.00862   0.00096  -0.0159   0.5366   0.1604  72.5977 190.4587
  -0.729  -0.1096   0.00854   0.00092  -0.0159   0.5284   0.1744  73.3858 192.2505
  -0.643  -0.1011   0.00837   0.00086  -0.0158   0.5205   0.2078  74.1347 196.3130
  -0.558  -0.0958   0.00751   0.00066  -0.0156   0.5137   0.3906  74.7912 215.5730
  -0.472  -0.0876   0.00721   0.00059  -0.0156   0.5063   0.4571  75.4967 222.0000
  -0.387  -0.0792   0.00699   0.00055  -0.0155   0.4990   0.5082  76.1980 226.8884
  -0.301  -0.0704   0.00683   0.00052  -0.0154   0.4914   0.5488  76.9187 230.7681
  -0.216  -0.0614   0.00671   0.00050  -0.0154   0.4839   0.5810  77.6408 233.8682
  -0.131  -0.0523   0.00662   0.00049  -0.0153   0.4765   0.6072  78.3491 236.4136
  -0.045  -0.0431   0.00655   0.00048  -0.0153   0.4691   0.6303  79.0597 238.6830
   0.040  -0.0339   0.00650   0.00048  -0.0152   0.4615   0.6511  79.7863 240.7489
   0.126  -0.0246   0.00645   0.00048  -0.0151   0.4543   0.6704  80.4807 242.6952
   0.211  -0.0154   0.00641   0.00049  -0.0151   0.4472   0.6885  81.1580 244.5369
   0.296  -0.0061   0.00639   0.00051  -0.0150   0.4401   0.7054  81.8406 246.2921
   0.382   0.0032   0.00638   0.00054  -0.0149   0.4334   0.7206  82.4864 247.8967
   0.467   0.0126   0.00639   0.00057  -0.0148   0.4270   0.7336  83.1095 249.2878
   0.553   0.0221   0.00641   0.00060  -0.0147   0.4205   0.7437  83.7344 250.3864
   0.638   0.0316   0.00645   0.00063  -0.0147   0.4146   0.7518  84.3100 251.2752
   0.724   0.0413   0.00649   0.00065  -0.0147   0.4085   0.7589  84.9026 252.0607
   0.809   0.0509   0.00652   0.00067  -0.0146   0.4026   0.7648  85.4795 252.7185
   0.894   0.0605   0.00657   0.00070  -0.0146   0.3968   0.7699  86.0452 253.2974
   0.980   0.0703   0.00661   0.00072  -0.0146   0.3910   0.7750  86.6145 253.8673
   1.065   0.0799   0.00666   0.00075  -0.0145   0.3857   0.7789  87.1356 254.3160
   1.151   0.0897   0.00670   0.00077  -0.0145   0.3803   0.7831  87.6642 254.8066
   1.236   0.0993   0.00675   0.00079  -0.0145   0.3755   0.7865  88.1392 255.1996
   1.322   0.1090   0.00679   0.00082  -0.0145   0.3705   0.7896  88.6287 255.5598
   1.407   0.1188   0.00684   0.00083  -0.0145   0.3661   0.7927  89.0703 255.9200
   1.492   0.1285   0.00688   0.00085  -0.0145   0.3617   0.7948  89.5074 256.1652
   1.578   0.1381   0.00692   0.00088  -0.0145   0.3576   0.7970  89.9163 256.4325
   1.663   0.1479   0.00697   0.00090  -0.0145   0.3538   0.7997  90.3000 256.7535
   1.749   0.1577   0.00701   0.00091  -0.0145   0.3498   0.8023  90.6921 257.0611
   1.834   0.1672   0.00706   0.00094  -0.0145   0.3463   0.8042  91.0464 257.2895
   1.920   0.1769   0.00710   0.00097  -0.0144   0.3427   0.8064  91.4134 257.5556
   2.005   0.1867   0.00715   0.00099  -0.0145   0.3391   0.8089  91.7774 257.8575
   2.091   0.1964   0.00719   0.00101  -0.0144   0.3358   0.8109  92.1034 258.0987
   2.176   0.2060   0.00723   0.00104  -0.0144   0.3326   0.8125  92.4357 258.2880
   2.261   0.2157   0.00727   0.00106  -0.0144   0.3294   0.8140  92.7577 258.4808
   2.347   0.2254   0.00732   0.00108  -0.0144   0.3266   0.8159  93.0463 258.7053
   2.432   0.2353   0.00736   0.00109  -0.0144   0.3237   0.8180  93.3364 258.9680
   2.518   0.2448   0.00739   0.00112  -0.0144   0.3210   0.8195  93.6189 259.1500
   2.603   0.2544   0.00744   0.00115  -0.0144   0.3184   0.8210  93.8780 259.3377
   2.688   0.2640   0.00748   0.00117  -0.0143   0.3161   0.8227  94.1174 259.5492
   2.774   0.2738   0.00752   0.00119  -0.0144   0.3137   0.8245  94.3704 259.7778
   2.859   0.2837   0.00756   0.00120  -0.0144   0.3112   0.8264  94.6248 260.0060
   2.945   0.2931   0.00760   0.00123  -0.0143   0.3089   0.8275  94.8613 260.1465
   3.030   0.3027   0.00764   0.00125  -0.0143   0.3068   0.8288  95.0801 260.3161
   3.116   0.3123   0.00767   0.00128  -0.0143   0.3046   0.8303  95.3046 260.5079
   3.201   0.3220   0.00771   0.00130  -0.0143   0.3025   0.8320  95.5309 260.7284
   3.286   0.3318   0.00776   0.00131  -0.0143   0.3004   0.8341  95.7506 260.9842
   3.372   0.3412   0.00780   0.00134  -0.0142   0.2984   0.8353  95.9556 261.1496
   3.457   0.3507   0.00783   0.00137  -0.0142   0.2965   0.8366  96.1510 261.3132
   3.543   0.3603   0.00786   0.00139  -0.0142   0.2946   0.8379  96.3569 261.4793
   3.628   0.3700   0.00790   0.00140  -0.0142   0.2926   0.8392  96.5612 261.6422
   3.714   0.3798   0.00794   0.00141  -0.0142   0.2908   0.8403  96.7541 261.7881
   3.799   0.3895   0.00798   0.00142  -0.0143   0.2891   0.8413  96.9345 261.9240
   3.884   0.3993   0.00801   0.00143  -0.0143   0.2874   0.8422  97.1098 262.0378
   3.970   0.4090   0.00803   0.00145  -0.0143   0.2856   0.8429  97.2982 262.1265
   4.055   0.4186   0.00805   0.00146  -0.0143   0.2838   0.8436  97.4934 262.2211
   4.141   0.4282   0.00809   0.00148  -0.0143   0.2820   0.8444  97.6836 262.3210
   4.226   0.4378   0.00813   0.00149  -0.0143   0.2803   0.8452  97.8640 262.4261
   4.312   0.4474   0.00817   0.00150  -0.0143   0.2787   0.8460  98.0357 262.5377
   4.397   0.4572   0.00819   0.00152  -0.0144   0.2771   0.8469  98.2048 262.6538
   4.482   0.4670   0.00822   0.00153  -0.0144   0.2755   0.8478  98.3799 262.7728
   4.568   0.4769   0.00825   0.00153  -0.0145   0.2739   0.8487  98.5500 262.8955
   4.653   0.4867   0.00829   0.00154  -0.0145   0.2724   0.8496  98.7136 263.0121
   4.739   0.4961   0.00833   0.00156  -0.0145   0.2709   0.8502  98.8697 263.0931
   4.824   0.5056   0.00837   0.00158  -0.0145   0.2695   0.8508  99.0253 263.1782
   4.910   0.5153   0.00839   0.00159  -0.0145   0.2680   0.8515  99.1837 263.2668
   4.995   0.5250   0.00841   0.00161  -0.0145   0.2664   0.8522  99.3621 263.3611
   5.080   0.5346   0.00844   0.00162  -0.0146   0.2647   0.8529  99.5471 263.4608
   5.166   0.5442   0.00848   0.00163  -0.0146   0.2630   0.8537  99.7305 263.5642
   5.251   0.5538   0.00853   0.00164  -0.0146   0.2612   0.8545  99.9211 263.6705
   5.337   0.5636   0.00856   0.00165  -0.0147   0.2594   0.8553 100.1234 263.7794
   5.422   0.5734   0.00858   0.00165  -0.0147   0.2572   0.8561 100.3558 263.8914
   5.593   0.5927   0.00865   0.00167  -0.0148   0.2529   0.8575 100.8318 264.0757
   5.678   0.6022   0.00869   0.00168  -0.0148   0.2509   0.8580 101.0473 264.1526
   5.764   0.6119   0.00871   0.00169  -0.0148   0.2491   0.8586 101.2541 264.2339
   5.849   0.6215   0.00874   0.00170  -0.0148   0.2471   0.8593 101.4680 264.3198
   5.935   0.6311   0.00877   0.00171  -0.0149   0.2452   0.8599 101.6851 264.4092
   6.020   0.6406   0.00882   0.00172  -0.0149   0.2432   0.8606 101.9063 264.5029
   6.106   0.6502   0.00886   0.00173  -0.0149   0.2412   0.8613 102.1336 264.5995
   6.191   0.6600   0.00888   0.00173  -0.0150   0.2388   0.8620 102.4025 264.7011
   6.276   0.6696   0.00892   0.00174  -0.0150   0.2363   0.8628 102.6853 264.8029
   6.362   0.6792   0.00898   0.00175  -0.0151   0.2339   0.8635 102.9466 264.9056
   6.533   0.6986   0.00903   0.00176  -0.0152   0.2298   0.8647 103.4159 265.0719
   6.618   0.7081   0.00906   0.00177  -0.0152   0.2277   0.8652 103.6602 265.1449
   6.704   0.7175   0.00911   0.00179  -0.0152   0.2256   0.8658 103.8989 265.2216
   6.789   0.7270   0.00914   0.00180  -0.0152   0.2236   0.8663 104.1275 265.3020
   6.874   0.7366   0.00917   0.00181  -0.0152   0.2214   0.8669 104.3784 265.3850
   6.960   0.7461   0.00921   0.00182  -0.0152   0.2191   0.8675 104.6382 265.4709
   7.045   0.7555   0.00927   0.00183  -0.0153   0.2170   0.8682 104.8881 265.5605
   7.131   0.7651   0.00931   0.00184  -0.0153   0.2150   0.8688 105.1197 265.6519
   7.216   0.7748   0.00935   0.00186  -0.0153   0.2128   0.8695 105.3746 265.7446
   7.301   0.7843   0.00939   0.00187  -0.0154   0.2105   0.8702 105.6426 265.8372
   7.387   0.7939   0.00945   0.00188  -0.0154   0.2083   0.8708 105.9022 265.9313
   7.472   0.8035   0.00949   0.00189  -0.0155   0.2061   0.8714 106.1605 266.0173
   7.558   0.8129   0.00953   0.00191  -0.0155   0.2035   0.8719 106.4741 266.0857
   7.643   0.8222   0.00958   0.00192  -0.0155   0.2006   0.8724 106.8162 266.1582
   7.729   0.8315   0.00963   0.00194  -0.0155   0.1978   0.8729 107.1463 266.2337
   7.814   0.8410   0.00967   0.00195  -0.0155   0.1948   0.8735 107.5178 266.3113
   7.899   0.8502   0.00974   0.00197  -0.0155   0.1916   0.8740 107.8953 266.3925
   7.985   0.8596   0.00979   0.00199  -0.0155   0.1887   0.8746 108.2575 266.4759
   8.070   0.8690   0.00985   0.00201  -0.0155   0.1853   0.8752 108.6729 266.5619
   8.156   0.8782   0.00993   0.00203  -0.0155   0.1820   0.8758 109.0831 266.6513
   8.241   0.8876   0.00998   0.00205  -0.0156   0.1780   0.8765 109.5741 266.7421
   8.327   0.8968   0.01007   0.00208  -0.0156   0.1740   0.8771 110.0855 266.8352
   8.412   0.9062   0.01014   0.00210  -0.0156   0.1698   0.8778 110.6196 266.9279
   8.498   0.9153   0.01023   0.00213  -0.0156   0.1657   0.8784 111.1373 267.0146
   8.583   0.9244   0.01031   0.00217  -0.0156   0.1609   0.8788 111.7526 267.0846
   8.668   0.9333   0.01039   0.00220  -0.0155   0.1559   0.8793 112.4178 267.1612
   8.754   0.9421   0.01050   0.00225  -0.0154   0.1498   0.8799 113.2211 267.2423
   8.839   0.9508   0.01063   0.00230  -0.0154   0.1436   0.8805 114.0583 267.3292
   8.925   0.9594   0.01076   0.00236  -0.0153   0.1364   0.8811 115.0519 267.4212
   9.010   0.9679   0.01092   0.00243  -0.0152   0.1276   0.8818 116.2954 267.5179
   9.095   0.9762   0.01110   0.00252  -0.0151   0.1189   0.8824 117.5618 267.6144
   9.181   0.9843   0.01130   0.00263  -0.0149   0.1092   0.8831 119.0248 267.7111
   9.266   0.9924   0.01151   0.00274  -0.0148   0.1005   0.8837 120.3721 267.8051
   9.352   1.0005   0.01173   0.00286  -0.0147   0.0918   0.8843 121.7809 267.8966
   9.437   1.0085   0.01195   0.00298  -0.0145   0.0847   0.8849 122.9763 267.9853
   9.523   1.0167   0.01213   0.00309  -0.0144   0.0783   0.8854 124.1002 268.0573
   9.608   1.0247   0.01231   0.00320  -0.0142   0.0726   0.8859 125.1245 268.1281
   9.779   1.0412   0.01264   0.00340  -0.0139   0.0637   0.8869 126.8071 268.2781
   9.864   1.0495   0.01280   0.00350  -0.0138   0.0601   0.8874 127.5288 268.3566
   9.950   1.0578   0.01296   0.00359  -0.0137   0.0569   0.8879 128.1723 268.4370
  10.035   1.0661   0.01311   0.00369  -0.0136   0.0541   0.8885 128.7553 268.5178
  10.121   1.0746   0.01326   0.00377  -0.0135   0.0517   0.8890 129.2677 268.6023
  10.206   1.0830   0.01340   0.00386  -0.0134   0.0493   0.8896 129.8026 268.6896
  10.291   1.0915   0.01355   0.00395  -0.0133   0.0472   0.8902 130.2656 268.7824
  10.377   1.0999   0.01369   0.00403  -0.0132   0.0452   0.8908 130.7229 268.8799
  10.462   1.1083   0.01385   0.00413  -0.0131   0.0435   0.8915 131.1189 268.9803
  10.548   1.1167   0.01397   0.00421  -0.0130   0.0420   0.8920 131.4818 269.0625
  10.633   1.1248   0.01412   0.00430  -0.0128   0.0405   0.8926 131.8242 269.1440
  10.719   1.1331   0.01426   0.00439  -0.0127   0.0393   0.8931 132.1245 269.2271
  10.804   1.1415   0.01438   0.00446  -0.0126   0.0381   0.8936 132.4285 269.3109
  10.889   1.1497   0.01452   0.00455  -0.0125   0.0369   0.8942 132.7288 269.3953
  10.975   1.1578   0.01469   0.00466  -0.0123   0.0358   0.8947 133.0061 269.4814
  11.060   1.1663   0.01480   0.00473  -0.0123   0.0349   0.8953 133.2413 269.5674
  11.146   1.1746   0.01494   0.00481  -0.0122   0.0339   0.8959 133.4886 269.6564
  11.231   1.1828   0.01509   0.00491  -0.0120   0.0330   0.8965 133.7262 269.7489
  11.317   1.1907   0.01527   0.00502  -0.0119   0.0322   0.8971 133.9588 269.8443
  11.402   1.1991   0.01540   0.00510  -0.0118   0.0315   0.8977 134.1517 269.9381
  11.487   1.2074   0.01553   0.00518  -0.0117   0.0307   0.8982 134.3581 270.0260
  11.573   1.2153   0.01568   0.00528  -0.0115   0.0300   0.8987 134.5674 270.1061
  11.658   1.2231   0.01584   0.00539  -0.0114   0.0292   0.8993 134.7717 270.1923
  11.744   1.2306   0.01604   0.00552  -0.0111   0.0285   0.8999 134.9842 270.2867
  11.829   1.2389   0.01615   0.00559  -0.0110   0.0279   0.9005 135.1489 270.3826
  11.915   1.2470   0.01627   0.00567  -0.0109   0.0273   0.9011 135.3377 270.4878
  12.000   1.2550   0.01642   0.00576  -0.0108   0.0266   0.9018 135.5334 270.6013
