  
       XFOIL         Version 6.99
  
 Calculated polar for: Repaneled_Airfoil                               
  
 1 1 Reynolds number fixed          Mach number fixed         
  
 xtrf =   1.000 (top)        1.000 (bottom)  
 Mach =   0.000     Re =     1.000 e 6     Ncrit =   9.000  9.000
  
   alpha    CL        CD       CDp       CM     Top_Xtr  Bot_Xtr  Top_Itr  Bot_Itr
  ------ -------- --------- --------- -------- -------- -------- -------- --------
  -5.000  -0.4418   0.00946   0.00203  -0.0437   0.9554   0.0402  21.3544 170.3602
  -4.915  -0.4324   0.00938   0.00199  -0.0436   0.9529   0.0412  21.9248 170.6153
  -4.829  -0.4232   0.00932   0.00194  -0.0435   0.9498   0.0423  22.5960 170.8669
  -4.744  -0.4139   0.00925   0.00190  -0.0434   0.9471   0.0434  23.1854 171.1411
  -4.658  -0.4048   0.00918   0.00186  -0.0433   0.9441   0.0450  23.8172 171.4899
  -4.573  -0.3956   0.00912   0.00183  -0.0432   0.9411   0.0466  24.4416 171.8721
  -4.487  -0.3864   0.00905   0.00179  -0.0431   0.9384   0.0484  24.9877 172.2620
  -4.402  -0.3773   0.00899   0.00175  -0.0429   0.9351   0.0504  25.6254 172.7066
  -4.317  -0.3680   0.00894   0.00172  -0.0428   0.9323   0.0523  26.1783 173.1265
  -4.231  -0.3589   0.00886   0.00169  -0.0427   0.9291   0.0545  26.7693 173.5797
  -4.060  -0.3406   0.00875   0.00162  -0.0425   0.9228   0.0588  27.9150 174.4623
  -3.975  -0.3313   0.00870   0.00160  -0.0424   0.9193   0.0609  28.5415 174.8977
  -3.889  -0.3222   0.00864   0.00156  -0.0423   0.9159   0.0629  29.1319 175.2922
  -3.804  -0.3130   0.00858   0.00153  -0.0421   0.9121   0.0649  29.7767 175.6883
  -3.633  -0.2947   0.00847   0.00145  -0.0419   0.9045   0.0685  31.0467 176.3659
  -3.548  -0.2855   0.00842   0.00142  -0.0418   0.9002   0.0704  31.7267 176.7302
  -3.462  -0.2763   0.00838   0.00138  -0.0417   0.8961   0.0723  32.3855 177.0816
  -3.377  -0.2672   0.00832   0.00134  -0.0415   0.8920   0.0744  33.0189 177.4669
  -3.292  -0.2579   0.00828   0.00131  -0.0414   0.8876   0.0767  33.6954 177.8760
  -3.206  -0.2486   0.00822   0.00128  -0.0413   0.8833   0.0789  34.3313 178.2740
  -3.121  -0.2394   0.00818   0.00125  -0.0412   0.8791   0.0814  34.9503 178.7158
  -3.035  -0.2301   0.00814   0.00122  -0.0411   0.8746   0.0839  35.6095 179.1424
  -2.950  -0.2209   0.00809   0.00119  -0.0410   0.8702   0.0866  36.2366 179.6034
  -2.864  -0.2116   0.00805   0.00116  -0.0409   0.8656   0.0893  36.8877 180.0619
  -2.779  -0.2023   0.00800   0.00113  -0.0408   0.8607   0.0923  37.5647 180.5542
  -2.693  -0.1930   0.00797   0.00111  -0.0407   0.8559   0.0953  38.2318 181.0443
  -2.608  -0.1838   0.00792   0.00108  -0.0406   0.8507   0.0985  38.9402 181.5566
  -2.523  -0.1745   0.00789   0.00105  -0.0405   0.8449   0.1018  39.7027 182.0838
  -2.437  -0.1653   0.00784   0.00102  -0.0404   0.8389   0.1054  40.4891 182.6518
  -2.352  -0.1560   0.00780   0.00099  -0.0403   0.8324   0.1091  41.3262 183.2168
  -2.266  -0.1468   0.00777   0.00097  -0.0402   0.8252   0.1131  42.2375 183.8283
  -2.181  -0.1377   0.00773   0.00093  -0.0401   0.8173   0.1170  43.2343 184.4174
  -2.010  -0.1195   0.00766   0.00087  -0.0398   0.7979   0.1258  45.5869 185.7030
  -1.925  -0.1105   0.00764   0.00084  -0.0397   0.7862   0.1308  46.9600 186.4156
  -1.839  -0.1016   0.00761   0.00080  -0.0395   0.7724   0.1366  48.5471 187.2184
  -1.754  -0.0929   0.00759   0.00076  -0.0393   0.7578   0.1433  50.1948 188.1444
  -1.668  -0.0842   0.00756   0.00072  -0.0391   0.7430   0.1518  51.8298 189.2833
  -1.583  -0.0756   0.00752   0.00068  -0.0389   0.7300   0.1636  53.2467 190.8295
  -1.498  -0.0671   0.00744   0.00065  -0.0387   0.7185   0.1816  54.4758 193.1066
  -1.412  -0.0586   0.00734   0.00062  -0.0386   0.7088   0.2088  55.4957 196.3857
  -1.327  -0.0499   0.00727   0.00061  -0.0384   0.7003   0.2331  56.3861 199.1844
  -1.241  -0.0410   0.00723   0.00060  -0.0383   0.6927   0.2506  57.1771 201.1272
  -1.156  -0.0319   0.00720   0.00060  -0.0382   0.6856   0.2646  57.9155 202.6611
  -1.070  -0.0227   0.00718   0.00059  -0.0382   0.6788   0.2767  58.6068 203.9524
  -0.985  -0.0135   0.00715   0.00059  -0.0381   0.6726   0.2877  59.2421 205.1185
  -0.899  -0.0043   0.00713   0.00058  -0.0380   0.6665   0.2982  59.8641 206.2203
  -0.814   0.0050   0.00710   0.00057  -0.0380   0.6607   0.3086  60.4481 207.3059
  -0.643   0.0236   0.00704   0.00056  -0.0378   0.6498   0.3303  61.5492 209.5217
  -0.558   0.0329   0.00701   0.00055  -0.0378   0.6446   0.3418  62.0640 210.6821
  -0.472   0.0422   0.00698   0.00054  -0.0377   0.6393   0.3540  62.5996 211.9102
  -0.387   0.0515   0.00694   0.00054  -0.0377   0.6344   0.3672  63.0871 213.2188
  -0.301   0.0607   0.00689   0.00053  -0.0376   0.6291   0.3823  63.6037 214.7106
  -0.216   0.0699   0.00684   0.00052  -0.0376   0.6244   0.3999  64.0755 216.4260
  -0.131   0.0790   0.00676   0.00051  -0.0375   0.6194   0.4212  64.5693 218.4994
  -0.045   0.0880   0.00669   0.00050  -0.0374   0.6149   0.4470  65.0101 220.9828
   0.040   0.0969   0.00658   0.00049  -0.0373   0.6103   0.4776  65.4612 223.9083
   0.126   0.1056   0.00646   0.00048  -0.0372   0.6061   0.5124  65.8715 227.2342
   0.211   0.1143   0.00633   0.00047  -0.0371   0.6022   0.5511  66.2566 230.9356
   0.296   0.1229   0.00620   0.00047  -0.0369   0.5981   0.5917  66.6526 234.8490
   0.382   0.1314   0.00610   0.00047  -0.0367   0.5945   0.6294  67.0024 238.5409
   0.467   0.1403   0.00602   0.00049  -0.0365   0.5907   0.6615  67.3728 241.7475
   0.553   0.1493   0.00597   0.00051  -0.0364   0.5869   0.6862  67.7446 244.2587
   0.638   0.1584   0.00595   0.00052  -0.0362   0.5833   0.7047  68.0914 246.1768
   0.724   0.1678   0.00593   0.00053  -0.0362   0.5793   0.7192  68.4804 247.7076
   0.809   0.1771   0.00593   0.00053  -0.0361   0.5754   0.7310  68.8604 248.9642
   0.894   0.1865   0.00592   0.00054  -0.0360   0.5714   0.7409  69.2404 250.0365
   1.065   0.2053   0.00592   0.00055  -0.0358   0.5633   0.7576  70.0279 251.8751
   1.151   0.2147   0.00590   0.00055  -0.0358   0.5591   0.7656  70.4271 252.7742
   1.236   0.2241   0.00590   0.00055  -0.0357   0.5552   0.7739  70.8049 253.7069
   1.322   0.2333   0.00589   0.00056  -0.0356   0.5517   0.7825  71.1395 254.7003
   1.407   0.2427   0.00587   0.00056  -0.0355   0.5480   0.7914  71.4923 255.7380
   1.492   0.2519   0.00586   0.00057  -0.0354   0.5446   0.8003  71.8276 256.7904
   1.578   0.2612   0.00585   0.00057  -0.0353   0.5413   0.8092  72.1358 257.8654
   1.663   0.2705   0.00584   0.00058  -0.0351   0.5379   0.8180  72.4632 258.9371
   1.749   0.2796   0.00583   0.00059  -0.0350   0.5346   0.8273  72.7786 260.1069
   1.834   0.2887   0.00583   0.00060  -0.0348   0.5316   0.8375  73.0735 261.4138
   1.920   0.2978   0.00581   0.00062  -0.0347   0.5281   0.8489  73.4035 262.8984
   2.005   0.3067   0.00581   0.00063  -0.0345   0.5247   0.8609  73.7317 264.5295
   2.091   0.3156   0.00581   0.00065  -0.0342   0.5216   0.8733  74.0261 266.2679
   2.176   0.3245   0.00581   0.00067  -0.0340   0.5183   0.8852  74.3419 268.0172
   2.261   0.3333   0.00581   0.00069  -0.0337   0.5150   0.8962  74.6623 269.6963
   2.347   0.3420   0.00583   0.00071  -0.0335   0.5119   0.9065  74.9588 271.3453
   2.432   0.3509   0.00584   0.00072  -0.0332   0.5087   0.9160  75.2645 272.9461
   2.518   0.3598   0.00585   0.00074  -0.0330   0.5053   0.9242  75.5833 274.3820
   2.603   0.3686   0.00588   0.00076  -0.0327   0.5022   0.9315  75.8810 275.7320
   2.688   0.3777   0.00590   0.00077  -0.0325   0.4993   0.9378  76.1642 276.9450
   2.774   0.3870   0.00592   0.00078  -0.0324   0.4960   0.9431  76.4755 278.0175
   2.859   0.3962   0.00595   0.00079  -0.0323   0.4928   0.9478  76.7829 279.0029
   2.945   0.4056   0.00598   0.00080  -0.0322   0.4897   0.9520  77.0754 279.9344
   3.030   0.4153   0.00600   0.00082  -0.0321   0.4863   0.9559  77.4079 280.8102
   3.116   0.4251   0.00603   0.00083  -0.0321   0.4827   0.9596  77.7463 281.6844
   3.201   0.4349   0.00607   0.00084  -0.0322   0.4794   0.9630  78.0626 282.5381
   3.286   0.4451   0.00610   0.00085  -0.0322   0.4758   0.9663  78.4113 283.3957
   3.372   0.4554   0.00613   0.00086  -0.0323   0.4721   0.9697  78.7615 284.3013
   3.457   0.4658   0.00617   0.00087  -0.0325   0.4688   0.9730  79.0824 285.2479
   3.543   0.4768   0.00620   0.00088  -0.0328   0.4651   0.9761  79.4351 286.2014
   3.628   0.4880   0.00624   0.00090  -0.0331   0.4614   0.9791  79.7886 287.1629
   3.714   0.4997   0.00629   0.00092  -0.0335   0.4579   0.9818  80.1281 288.0990
   3.799   0.5120   0.00633   0.00093  -0.0341   0.4538   0.9841  80.5156 288.9606
   3.884   0.5248   0.00638   0.00095  -0.0348   0.4496   0.9858  80.9167 289.6237
   3.970   0.5377   0.00642   0.00096  -0.0355   0.4453   0.9873  81.3359 290.2503
   4.055   0.5509   0.00647   0.00098  -0.0363   0.4405   0.9885  81.7937 290.7734
   4.141   0.5641   0.00652   0.00099  -0.0371   0.4359   0.9896  82.2394 291.2678
   4.226   0.5772   0.00656   0.00101  -0.0379   0.4308   0.9907  82.7338 291.7983
   4.312   0.5904   0.00661   0.00102  -0.0387   0.4259   0.9917  83.2038 292.3091
   4.397   0.6035   0.00666   0.00104  -0.0394   0.4207   0.9928  83.7111 292.9059
   4.482   0.6167   0.00671   0.00105  -0.0403   0.4156   0.9937  84.2007 293.4246
   4.568   0.6298   0.00677   0.00106  -0.0410   0.4097   0.9947  84.7732 294.0636
   4.653   0.6429   0.00682   0.00108  -0.0418   0.4034   0.9955  85.3876 294.6129
   4.739   0.6558   0.00689   0.00109  -0.0426   0.3963   0.9963  86.0844 295.2454
   4.824   0.6687   0.00695   0.00110  -0.0434   0.3884   0.9972  86.8543 295.9395
   4.910   0.6815   0.00701   0.00112  -0.0441   0.3802   0.9978  87.6557 296.6122
   4.995   0.6942   0.00708   0.00113  -0.0448   0.3719   0.9986  88.4831 297.4267
   5.080   0.7071   0.00716   0.00115  -0.0456   0.3625   0.9993  89.4138 298.4734
   5.166   0.7200   0.00725   0.00116  -0.0464   0.3523   0.9999  90.4327 300.5956
   5.251   0.7282   0.00732   0.00118  -0.0462   0.3429   1.0000  91.3755 301.0000
   5.337   0.7360   0.00741   0.00119  -0.0459   0.3327   1.0000  92.4002 301.0000
   5.422   0.7436   0.00750   0.00121  -0.0455   0.3222   1.0000  93.4745 301.0000
   5.508   0.7512   0.00760   0.00123  -0.0452   0.3104   1.0000  94.6829 301.0000
   5.593   0.7586   0.00772   0.00126  -0.0448   0.2984   1.0000  95.9341 301.0000
   5.678   0.7660   0.00783   0.00129  -0.0444   0.2870   1.0000  97.1291 301.0000
   5.764   0.7734   0.00794   0.00132  -0.0440   0.2753   1.0000  98.3748 301.0000
   5.849   0.7808   0.00805   0.00136  -0.0436   0.2652   1.0000  99.4597 301.0000
   5.935   0.7883   0.00816   0.00139  -0.0432   0.2562   1.0000 100.4350 301.0000
   6.020   0.7957   0.00827   0.00143  -0.0429   0.2483   1.0000 101.3113 301.0000
   6.106   0.8032   0.00837   0.00146  -0.0425   0.2416   1.0000 102.0497 301.0000
   6.191   0.8109   0.00846   0.00150  -0.0421   0.2356   1.0000 102.7217 301.0000
   6.276   0.8186   0.00854   0.00153  -0.0418   0.2305   1.0000 103.2978 301.0000
   6.362   0.8263   0.00863   0.00156  -0.0414   0.2256   1.0000 103.8635 301.0000
   6.447   0.8341   0.00871   0.00160  -0.0411   0.2213   1.0000 104.3504 301.0000
   6.533   0.8418   0.00880   0.00163  -0.0408   0.2171   1.0000 104.8315 301.0000
   6.618   0.8497   0.00887   0.00166  -0.0404   0.2135   1.0000 105.2577 301.0000
   6.704   0.8576   0.00895   0.00169  -0.0401   0.2098   1.0000 105.6937 301.0000
   6.789   0.8654   0.00903   0.00172  -0.0398   0.2065   1.0000 106.0802 301.0000
   6.874   0.8735   0.00909   0.00175  -0.0395   0.2032   1.0000 106.4672 301.0000
   6.960   0.8815   0.00917   0.00178  -0.0392   0.1999   1.0000 106.8560 301.0000
   7.045   0.8895   0.00924   0.00181  -0.0389   0.1970   1.0000 107.2041 301.0000
   7.131   0.8976   0.00931   0.00184  -0.0386   0.1940   1.0000 107.5706 301.0000
   7.216   0.9055   0.00939   0.00187  -0.0383   0.1910   1.0000 107.9293 301.0000
   7.301   0.9137   0.00946   0.00190  -0.0381   0.1881   1.0000 108.2831 301.0000
   7.387   0.9218   0.00953   0.00193  -0.0378   0.1848   1.0000 108.6873 301.0000
   7.472   0.9298   0.00962   0.00196  -0.0375   0.1817   1.0000 109.0777 301.0000
   7.558   0.9380   0.00968   0.00198  -0.0373   0.1781   1.0000 109.5183 301.0000
   7.729   0.9543   0.00984   0.00204  -0.0367   0.1709   1.0000 110.4240 301.0000
   7.814   0.9623   0.00993   0.00208  -0.0365   0.1672   1.0000 110.8936 301.0000
   7.899   0.9706   0.01000   0.00211  -0.0362   0.1637   1.0000 111.3458 301.0000
   7.985   0.9787   0.01010   0.00214  -0.0360   0.1597   1.0000 111.8668 301.0000
   8.070   0.9870   0.01018   0.00217  -0.0358   0.1556   1.0000 112.4024 301.0000
   8.156   0.9950   0.01028   0.00221  -0.0355   0.1510   1.0000 113.0148 301.0000
   8.241   1.0032   0.01037   0.00225  -0.0353   0.1464   1.0000 113.6380 301.0000
   8.327   1.0113   0.01048   0.00229  -0.0351   0.1419   1.0000 114.2475 301.0000
   8.412   1.0193   0.01060   0.00234  -0.0348   0.1367   1.0000 114.9649 301.0000
   8.498   1.0274   0.01071   0.00238  -0.0346   0.1309   1.0000 115.7846 301.0000
   8.583   1.0352   0.01084   0.00244  -0.0343   0.1249   1.0000 116.6330 301.0000
   8.668   1.0430   0.01098   0.00250  -0.0340   0.1190   1.0000 117.4930 301.0000
   8.754   1.0507   0.01113   0.00257  -0.0338   0.1126   1.0000 118.4568 301.0000
   8.839   1.0583   0.01129   0.00265  -0.0335   0.1062   1.0000 119.4390 301.0000
   8.925   1.0659   0.01145   0.00272  -0.0332   0.1004   1.0000 120.3487 301.0000
   9.010   1.0734   0.01162   0.00281  -0.0329   0.0944   1.0000 121.3157 301.0000
   9.095   1.0809   0.01179   0.00290  -0.0326   0.0886   1.0000 122.2646 301.0000
   9.181   1.0884   0.01196   0.00299  -0.0322   0.0836   1.0000 123.1174 301.0000
   9.352   1.1035   0.01230   0.00316  -0.0317   0.0739   1.0000 124.8344 301.0000
   9.437   1.1111   0.01246   0.00325  -0.0314   0.0700   1.0000 125.5682 301.0000
   9.523   1.1187   0.01262   0.00333  -0.0311   0.0665   1.0000 126.2337 301.0000
   9.608   1.1263   0.01278   0.00342  -0.0308   0.0629   1.0000 126.9149 301.0000
   9.694   1.1340   0.01292   0.00350  -0.0306   0.0599   1.0000 127.5172 301.0000
   9.779   1.1416   0.01309   0.00359  -0.0303   0.0572   1.0000 128.0713 301.0000
   9.864   1.1494   0.01323   0.00366  -0.0300   0.0548   1.0000 128.5765 301.0000
   9.950   1.1569   0.01340   0.00375  -0.0297   0.0526   1.0000 129.0371 301.0000
  10.035   1.1648   0.01352   0.00382  -0.0295   0.0505   1.0000 129.4921 301.0000
  10.121   1.1723   0.01368   0.00391  -0.0292   0.0484   1.0000 129.9446 301.0000
  10.206   1.1801   0.01382   0.00398  -0.0290   0.0466   1.0000 130.3578 301.0000
  10.291   1.1877   0.01398   0.00407  -0.0287   0.0447   1.0000 130.7832 301.0000
  10.377   1.1953   0.01413   0.00415  -0.0284   0.0431   1.0000 131.1607 301.0000
  10.462   1.2029   0.01427   0.00423  -0.0282   0.0415   1.0000 131.5332 301.0000
  10.548   1.2103   0.01444   0.00432  -0.0279   0.0401   1.0000 131.8851 301.0000
  10.633   1.2180   0.01458   0.00440  -0.0276   0.0388   1.0000 132.1987 301.0000
  10.719   1.2257   0.01471   0.00448  -0.0274   0.0375   1.0000 132.5361 301.0000
  10.804   1.2330   0.01488   0.00456  -0.0271   0.0362   1.0000 132.8598 301.0000
  10.889   1.2405   0.01502   0.00465  -0.0268   0.0351   1.0000 133.1417 301.0000
  10.975   1.2482   0.01516   0.00472  -0.0265   0.0340   1.0000 133.4268 301.0000
  11.060   1.2555   0.01532   0.00481  -0.0262   0.0329   1.0000 133.7062 301.0000
  11.146   1.2626   0.01550   0.00491  -0.0259   0.0319   1.0000 133.9710 301.0000
  11.231   1.2702   0.01563   0.00498  -0.0256   0.0312   1.0000 134.1894 301.0000
  11.317   1.2776   0.01577   0.00506  -0.0254   0.0303   1.0000 134.4167 301.0000
  11.402   1.2848   0.01593   0.00515  -0.0251   0.0296   1.0000 134.6364 301.0000
  11.487   1.2918   0.01611   0.00525  -0.0247   0.0288   1.0000 134.8423 301.0000
  11.573   1.2988   0.01628   0.00535  -0.0244   0.0282   1.0000 135.0301 301.0000
  11.658   1.3063   0.01641   0.00542  -0.0241   0.0276   1.0000 135.1870 301.0000
  11.744   1.3136   0.01655   0.00550  -0.0238   0.0270   1.0000 135.3589 301.0000
  11.829   1.3207   0.01670   0.00558  -0.0235   0.0264   1.0000 135.5349 301.0000
  11.915   1.3276   0.01687   0.00567  -0.0231   0.0259   1.0000 135.7055 301.0000
  12.000   1.3343   0.01705   0.00577  -0.0228   0.0253   1.0000 135.8678 301.0000
