  
       XFOIL         Version 6.99
  
 Calculated polar for: Repaneled_Airfoil                               
  
 1 1 Reynolds number fixed          Mach number fixed         
  
 xtrf =   1.000 (top)        1.000 (bottom)  
 Mach =   0.000     Re =     1.000 e 6     Ncrit =   9.000  9.000
  
   alpha    CL        CD       CDp       CM     Top_Xtr  Bot_Xtr  Top_Itr  Bot_Itr
  ------ -------- --------- --------- -------- -------- -------- -------- --------
  -5.000  -0.4192   0.00794   0.00135  -0.0609   0.9017   0.1849  31.4829 193.5179
  -4.915  -0.4099   0.00789   0.00133  -0.0608   0.8995   0.1898  31.8378 194.1234
  -4.829  -0.4005   0.00784   0.00132  -0.0608   0.8972   0.1946  32.2099 194.6972
  -4.744  -0.3911   0.00779   0.00131  -0.0607   0.8945   0.1988  32.6286 195.2092
  -4.658  -0.3817   0.00776   0.00129  -0.0606   0.8920   0.2031  33.0173 195.7180
  -4.573  -0.3721   0.00773   0.00128  -0.0606   0.8888   0.2065  33.4983 196.1172
  -4.487  -0.3627   0.00770   0.00127  -0.0605   0.8858   0.2098  33.9604 196.5042
  -4.402  -0.3532   0.00768   0.00126  -0.0605   0.8821   0.2130  34.5173 196.8793
  -4.317  -0.3438   0.00765   0.00125  -0.0604   0.8782   0.2157  35.0934 197.1913
  -4.231  -0.3343   0.00763   0.00125  -0.0604   0.8733   0.2184  35.7887 197.5003
  -4.146  -0.3248   0.00762   0.00124  -0.0603   0.8680   0.2209  36.5445 197.7934
  -4.060  -0.3154   0.00761   0.00122  -0.0602   0.8619   0.2230  37.4051 198.0368
  -3.975  -0.3061   0.00759   0.00121  -0.0601   0.8540   0.2249  38.4789 198.2482
  -3.889  -0.2969   0.00759   0.00119  -0.0599   0.8429   0.2267  39.9667 198.4526
  -3.804  -0.2890   0.00764   0.00113  -0.0595   0.8028   0.2284  45.0000 198.6463
  -3.719  -0.2861   0.00810   0.00113  -0.0581   0.6825   0.2297  58.2172 198.7916
  -3.633  -0.2775   0.00821   0.00116  -0.0579   0.6669   0.2312  59.8087 198.9723
  -3.548  -0.2684   0.00825   0.00118  -0.0577   0.6575   0.2328  60.7559 199.1495
  -3.462  -0.2592   0.00828   0.00120  -0.0577   0.6504   0.2345  61.4676 199.3360
  -3.377  -0.2498   0.00831   0.00121  -0.0576   0.6446   0.2362  62.0550 199.5264
  -3.292  -0.2402   0.00833   0.00122  -0.0576   0.6393   0.2378  62.5795 199.7093
  -3.206  -0.2307   0.00836   0.00123  -0.0576   0.6348   0.2392  63.0330 199.8708
  -3.121  -0.2210   0.00838   0.00123  -0.0576   0.6303   0.2405  63.4704 200.0095
  -3.035  -0.2117   0.00837   0.00123  -0.0575   0.6263   0.2418  63.8710 200.1570
  -2.950  -0.2021   0.00837   0.00124  -0.0575   0.6226   0.2432  64.2330 200.3066
  -2.864  -0.1925   0.00838   0.00125  -0.0575   0.6190   0.2446  64.5922 200.4620
  -2.779  -0.1829   0.00840   0.00126  -0.0575   0.6157   0.2460  64.9144 200.6243
  -2.693  -0.1731   0.00842   0.00126  -0.0575   0.6126   0.2475  65.2173 200.7880
  -2.608  -0.1633   0.00844   0.00126  -0.0575   0.6095   0.2489  65.5239 200.9430
  -2.523  -0.1538   0.00843   0.00127  -0.0575   0.6066   0.2502  65.8065 201.0900
  -2.437  -0.1443   0.00843   0.00127  -0.0575   0.6040   0.2515  66.0601 201.2289
  -2.352  -0.1346   0.00842   0.00128  -0.0575   0.6012   0.2527  66.3293 201.3627
  -2.266  -0.1249   0.00843   0.00128  -0.0575   0.5985   0.2540  66.5941 201.4984
  -2.181  -0.1152   0.00844   0.00128  -0.0575   0.5960   0.2552  66.8382 201.6370
  -2.095  -0.1056   0.00846   0.00128  -0.0575   0.5937   0.2565  67.0616 201.7781
  -2.010  -0.0957   0.00847   0.00128  -0.0575   0.5913   0.2577  67.2982 201.9122
  -1.925  -0.0860   0.00848   0.00128  -0.0576   0.5889   0.2589  67.5308 202.0334
  -1.839  -0.0765   0.00845   0.00128  -0.0575   0.5867   0.2600  67.7469 202.1621
  -1.754  -0.0670   0.00844   0.00128  -0.0575   0.5846   0.2610  67.9445 202.2691
  -1.668  -0.0573   0.00843   0.00127  -0.0575   0.5826   0.2619  68.1451 202.3646
  -1.583  -0.0476   0.00843   0.00127  -0.0575   0.5804   0.2627  68.3549 202.4549
  -1.498  -0.0379   0.00842   0.00126  -0.0575   0.5783   0.2636  68.5610 202.5459
  -1.412  -0.0283   0.00842   0.00125  -0.0575   0.5763   0.2644  68.7550 202.6361
  -1.327  -0.0186   0.00843   0.00125  -0.0575   0.5744   0.2653  68.9330 202.7283
  -1.241  -0.0089   0.00843   0.00124  -0.0575   0.5726   0.2661  69.1125 202.8206
  -1.156   0.0009   0.00843   0.00123  -0.0576   0.5706   0.2669  69.3051 202.9084
  -1.070   0.0106   0.00843   0.00122  -0.0576   0.5686   0.2676  69.4956 202.9851
  -0.985   0.0202   0.00841   0.00121  -0.0576   0.5667   0.2685  69.6762 203.0766
  -0.899   0.0297   0.00839   0.00120  -0.0575   0.5650   0.2693  69.8459 203.1613
  -0.814   0.0392   0.00838   0.00120  -0.0575   0.5632   0.2700  70.0194 203.2379
  -0.729   0.0489   0.00836   0.00119  -0.0575   0.5609   0.2707  70.2325 203.3107
  -0.643   0.0586   0.00835   0.00118  -0.0575   0.5585   0.2714  70.4651 203.3842
  -0.558   0.0682   0.00835   0.00117  -0.0575   0.5561   0.2721  70.7036 203.4628
  -0.472   0.0778   0.00836   0.00116  -0.0575   0.5537   0.2729  70.9338 203.5458
  -0.387   0.0875   0.00835   0.00115  -0.0575   0.5511   0.2737  71.1794 203.6322
  -0.301   0.0972   0.00834   0.00114  -0.0575   0.5484   0.2745  71.4372 203.7191
  -0.216   0.1069   0.00835   0.00113  -0.0575   0.5460   0.2753  71.6740 203.8032
  -0.131   0.1165   0.00836   0.00112  -0.0575   0.5438   0.2760  71.8844 203.8815
  -0.045   0.1261   0.00836   0.00111  -0.0575   0.5418   0.2767  72.0768 203.9516
   0.040   0.1359   0.00835   0.00110  -0.0575   0.5395   0.2773  72.2898 204.0185
   0.126   0.1455   0.00832   0.00109  -0.0575   0.5373   0.2781  72.5057 204.1080
   0.211   0.1550   0.00831   0.00108  -0.0575   0.5351   0.2789  72.7155 204.1928
   0.296   0.1645   0.00831   0.00107  -0.0575   0.5330   0.2797  72.9160 204.2757
   0.382   0.1742   0.00830   0.00107  -0.0575   0.5309   0.2805  73.1194 204.3590
   0.467   0.1839   0.00829   0.00106  -0.0575   0.5285   0.2813  73.3449 204.4424
   0.553   0.1936   0.00829   0.00105  -0.0575   0.5263   0.2821  73.5617 204.5280
   0.638   0.2032   0.00829   0.00104  -0.0575   0.5242   0.2829  73.7587 204.6158
   0.724   0.2128   0.00830   0.00103  -0.0575   0.5223   0.2838  73.9387 204.7026
   0.809   0.2225   0.00830   0.00103  -0.0575   0.5204   0.2845  74.1256 204.7869
   0.894   0.2323   0.00829   0.00102  -0.0575   0.5181   0.2853  74.3422 204.8669
   0.980   0.2420   0.00830   0.00101  -0.0575   0.5157   0.2860  74.5737 204.9427
   1.151   0.2610   0.00830   0.00099  -0.0575   0.5112   0.2877  75.0072 205.1199
   1.236   0.2707   0.00828   0.00099  -0.0575   0.5088   0.2886  75.2297 205.2170
   1.322   0.2804   0.00827   0.00098  -0.0575   0.5065   0.2895  75.4502 205.3130
   1.407   0.2900   0.00826   0.00098  -0.0575   0.5044   0.2905  75.6566 205.4098
   1.492   0.2996   0.00827   0.00097  -0.0575   0.5024   0.2914  75.8486 205.5067
   1.578   0.3092   0.00828   0.00096  -0.0575   0.5004   0.2923  76.0337 205.6028
   1.663   0.3190   0.00827   0.00096  -0.0575   0.4980   0.2932  76.2601 205.6978
   1.749   0.3286   0.00827   0.00095  -0.0575   0.4954   0.2941  76.5110 205.7902
   1.834   0.3383   0.00828   0.00094  -0.0575   0.4927   0.2949  76.7689 205.8804
   1.920   0.3478   0.00830   0.00094  -0.0575   0.4902   0.2958  77.0147 205.9650
   2.005   0.3575   0.00829   0.00093  -0.0575   0.4874   0.2967  77.2800 206.0618
   2.091   0.3671   0.00828   0.00092  -0.0575   0.4846   0.2977  77.5456 206.1671
   2.176   0.3767   0.00828   0.00092  -0.0575   0.4820   0.2987  77.7918 206.2715
   2.261   0.3862   0.00829   0.00091  -0.0575   0.4796   0.2997  78.0221 206.3806
   2.347   0.3959   0.00828   0.00091  -0.0575   0.4768   0.3009  78.2953 206.4984
   2.432   0.4055   0.00829   0.00090  -0.0575   0.4736   0.3021  78.5973 206.6220
   2.518   0.4150   0.00831   0.00090  -0.0575   0.4705   0.3033  78.8959 206.7471
   2.603   0.4247   0.00831   0.00089  -0.0575   0.4672   0.3045  79.2145 206.8715
   2.688   0.4343   0.00833   0.00089  -0.0575   0.4631   0.3056  79.5997 206.9891
   2.859   0.4533   0.00833   0.00088  -0.0574   0.4551   0.3083  80.3753 207.2639
   2.945   0.4628   0.00835   0.00087  -0.0574   0.4505   0.3097  80.8088 207.4069
   3.030   0.4723   0.00836   0.00087  -0.0574   0.4459   0.3111  81.2596 207.5568
   3.116   0.4817   0.00838   0.00086  -0.0573   0.4403   0.3126  81.7928 207.7153
   3.201   0.4912   0.00840   0.00086  -0.0573   0.4345   0.3142  82.3502 207.8800
   3.372   0.5099   0.00846   0.00085  -0.0572   0.4201   0.3178  83.7450 208.2498
   3.457   0.5191   0.00849   0.00085  -0.0572   0.4115   0.3200  84.5775 208.4702
   3.543   0.5282   0.00854   0.00085  -0.0571   0.4009   0.3224  85.6075 208.7104
   3.628   0.5371   0.00862   0.00086  -0.0570   0.3866   0.3248  87.0061 208.9579
   3.714   0.5456   0.00874   0.00088  -0.0568   0.3635   0.3275  89.2896 209.2330
   3.799   0.5487   0.00950   0.00109  -0.0559   0.2421   0.3299 101.9618 209.4749
   3.884   0.5548   0.00995   0.00130  -0.0554   0.1905   0.3329 107.9595 209.7864
   3.970   0.5634   0.01007   0.00135  -0.0553   0.1776   0.3368 109.5462 210.1755
   4.055   0.5724   0.01015   0.00139  -0.0552   0.1688   0.3418 110.6574 210.6762
   4.141   0.5814   0.01021   0.00143  -0.0551   0.1618   0.3480 111.5588 211.2980
   4.226   0.5905   0.01025   0.00145  -0.0551   0.1558   0.3569 112.3411 212.1922
   4.312   0.5995   0.01028   0.00148  -0.0550   0.1504   0.3719 113.0561 213.6786
   4.397   0.6084   0.01021   0.00150  -0.0550   0.1456   0.4139 113.7042 217.7831
   4.482   0.6147   0.00961   0.00159  -0.0547   0.1419   0.6811 114.1984 243.7279
   4.568   0.6238   0.00968   0.00164  -0.0546   0.1377   0.6975 114.7853 245.4196
   4.653   0.6331   0.00975   0.00169  -0.0545   0.1337   0.7068 115.3389 246.3835
   4.739   0.6422   0.00983   0.00173  -0.0545   0.1296   0.7134 115.9233 247.0755
   4.824   0.6515   0.00990   0.00177  -0.0544   0.1257   0.7184 116.4770 247.6151
   4.910   0.6606   0.00999   0.00180  -0.0543   0.1219   0.7227 117.0310 248.0671
   4.995   0.6699   0.01005   0.00184  -0.0543   0.1181   0.7263 117.5813 248.4524
   5.080   0.6790   0.01013   0.00187  -0.0542   0.1147   0.7299 118.0942 248.8416
   5.166   0.6883   0.01020   0.00191  -0.0541   0.1113   0.7329 118.6121 249.1542
   5.251   0.6974   0.01027   0.00194  -0.0540   0.1081   0.7355 119.0921 249.4389
   5.337   0.7066   0.01034   0.00198  -0.0540   0.1050   0.7381 119.5756 249.7226
   5.422   0.7157   0.01043   0.00201  -0.0539   0.1021   0.7406 120.0318 249.9888
   5.508   0.7249   0.01048   0.00204  -0.0538   0.0992   0.7426 120.4850 250.2136
   5.593   0.7339   0.01056   0.00208  -0.0537   0.0964   0.7448 120.9321 250.4523
   5.678   0.7431   0.01063   0.00211  -0.0537   0.0939   0.7470 121.3556 250.6906
   5.764   0.7522   0.01071   0.00215  -0.0536   0.0911   0.7490 121.8037 250.9119
   5.849   0.7613   0.01078   0.00218  -0.0535   0.0886   0.7507 122.2219 251.0977
   5.935   0.7703   0.01085   0.00222  -0.0534   0.0860   0.7523 122.6708 251.2765
   6.020   0.7793   0.01093   0.00226  -0.0533   0.0835   0.7540 123.0946 251.4660
   6.106   0.7884   0.01100   0.00229  -0.0532   0.0809   0.7558 123.5465 251.6680
   6.276   0.8064   0.01116   0.00236  -0.0530   0.0761   0.7593 124.4114 252.0515
   6.362   0.8152   0.01124   0.00240  -0.0529   0.0737   0.7607 124.8398 252.2146
   6.447   0.8242   0.01132   0.00244  -0.0528   0.0716   0.7622 125.2300 252.3779
   6.533   0.8331   0.01139   0.00248  -0.0527   0.0694   0.7636 125.6409 252.5382
   6.618   0.8418   0.01149   0.00252  -0.0526   0.0673   0.7651 126.0257 252.6989
   6.704   0.8509   0.01156   0.00256  -0.0525   0.0654   0.7665 126.3991 252.8618
   6.874   0.8685   0.01174   0.00264  -0.0523   0.0617   0.7690 127.1232 253.1490
   6.960   0.8774   0.01181   0.00268  -0.0522   0.0599   0.7702 127.4762 253.2856
   7.045   0.8861   0.01190   0.00273  -0.0520   0.0582   0.7714 127.8203 253.4205
   7.131   0.8948   0.01199   0.00278  -0.0519   0.0567   0.7727 128.1301 253.5610
   7.216   0.9037   0.01207   0.00282  -0.0518   0.0552   0.7740 128.4426 253.7154
   7.301   0.9123   0.01217   0.00287  -0.0516   0.0538   0.7754 128.7497 253.8733
   7.387   0.9209   0.01228   0.00292  -0.0515   0.0524   0.7767 129.0384 254.0218
   7.472   0.9297   0.01234   0.00296  -0.0513   0.0511   0.7779 129.3164 254.1592
   7.558   0.9383   0.01243   0.00301  -0.0512   0.0498   0.7791 129.6092 254.3007
   7.643   0.9468   0.01253   0.00307  -0.0510   0.0485   0.7804 129.8853 254.4444
   7.729   0.9554   0.01263   0.00312  -0.0509   0.0474   0.7817 130.1352 254.5914
   7.814   0.9641   0.01271   0.00317  -0.0507   0.0463   0.7829 130.3958 254.7384
   7.899   0.9726   0.01281   0.00322  -0.0506   0.0451   0.7841 130.6532 254.8789
   8.070   0.9894   0.01302   0.00333  -0.0502   0.0430   0.7864 131.1373 255.1369
   8.156   0.9980   0.01311   0.00338  -0.0501   0.0420   0.7875 131.3803 255.2716
   8.241   1.0064   0.01321   0.00344  -0.0499   0.0410   0.7887 131.6249 255.4088
   8.327   1.0145   0.01333   0.00350  -0.0497   0.0400   0.7899 131.8622 255.5445
   8.412   1.0228   0.01345   0.00357  -0.0495   0.0391   0.7910 132.0847 255.6778
   8.498   1.0314   0.01353   0.00362  -0.0493   0.0382   0.7921 132.2999 255.8102
   8.583   1.0398   0.01363   0.00367  -0.0492   0.0374   0.7933 132.5236 255.9457
   8.668   1.0480   0.01374   0.00373  -0.0490   0.0365   0.7944 132.7317 256.0781
   8.754   1.0559   0.01387   0.00380  -0.0487   0.0357   0.7955 132.9340 256.2135
   8.839   1.0641   0.01397   0.00387  -0.0485   0.0350   0.7967 133.1116 256.3552
   8.925   1.0725   0.01406   0.00392  -0.0483   0.0343   0.7979 133.2947 256.4978
   9.010   1.0808   0.01416   0.00398  -0.0481   0.0336   0.7991 133.4863 256.6383
   9.095   1.0889   0.01428   0.00404  -0.0479   0.0329   0.8003 133.6713 256.7748
   9.181   1.0968   0.01441   0.00411  -0.0477   0.0323   0.8015 133.8517 256.9166
   9.266   1.1044   0.01456   0.00420  -0.0474   0.0316   0.8027 134.0286 257.0603
   9.352   1.1126   0.01465   0.00426  -0.0472   0.0311   0.8039 134.1702 257.2110
   9.437   1.1208   0.01475   0.00432  -0.0470   0.0305   0.8052 134.3257 257.3728
   9.523   1.1287   0.01486   0.00439  -0.0467   0.0300   0.8066 134.4831 257.5424
   9.608   1.1366   0.01498   0.00446  -0.0465   0.0294   0.8081 134.6357 257.7146
   9.694   1.1442   0.01513   0.00454  -0.0462   0.0289   0.8095 134.7843 257.8863
   9.864   1.1590   0.01543   0.00472  -0.0455   0.0279   0.8124 135.0676 258.2411
   9.950   1.1670   0.01553   0.00479  -0.0453   0.0275   0.8141 135.1875 258.4477
  10.035   1.1749   0.01564   0.00486  -0.0450   0.0271   0.8160 135.3175 258.6822
  10.121   1.1826   0.01575   0.00493  -0.0448   0.0266   0.8181 135.4472 258.9418
  10.206   1.1902   0.01587   0.00500  -0.0445   0.0262   0.8206 135.5735 259.2462
  10.291   1.1976   0.01600   0.00508  -0.0442   0.0258   0.8236 135.6945 259.6308
  10.462   1.2115   0.01630   0.00528  -0.0434   0.0250   0.8322 135.9319 260.7158
  10.548   1.2182   0.01645   0.00538  -0.0429   0.0247   0.8392 136.0369 261.6121
  10.633   1.2253   0.01652   0.00546  -0.0425   0.0244   0.8514 136.1227 263.2274
  10.719   1.2288   0.01643   0.00553  -0.0412   0.0241   0.9219 136.1981 273.9591
  10.804   1.2401   0.01654   0.00562  -0.0417   0.0238   1.0000 136.3177 301.0000
  10.889   1.2473   0.01669   0.00570  -0.0414   0.0235   1.0000 136.4150 301.0000
  10.975   1.2546   0.01684   0.00579  -0.0411   0.0232   1.0000 136.5097 301.0000
  11.060   1.2616   0.01700   0.00588  -0.0407   0.0229   1.0000 136.6022 301.0000
  11.146   1.2685   0.01717   0.00597  -0.0403   0.0226   1.0000 136.6920 301.0000
  11.231   1.2751   0.01735   0.00607  -0.0399   0.0223   1.0000 136.7820 301.0000
  11.317   1.2813   0.01756   0.00619  -0.0394   0.0220   1.0000 136.8768 301.0000
  11.402   1.2868   0.01782   0.00633  -0.0388   0.0217   1.0000 136.9800 301.0000
  11.487   1.2934   0.01799   0.00644  -0.0384   0.0215   1.0000 137.0448 301.0000
  11.573   1.3003   0.01814   0.00653  -0.0380   0.0213   1.0000 137.1085 301.0000
  11.658   1.3070   0.01830   0.00662  -0.0376   0.0211   1.0000 137.1790 301.0000
  11.744   1.3134   0.01846   0.00672  -0.0371   0.0209   1.0000 137.2534 301.0000
  11.829   1.3194   0.01863   0.00681  -0.0366   0.0207   1.0000 137.3284 301.0000
  11.915   1.3252   0.01879   0.00691  -0.0360   0.0204   1.0000 137.4032 301.0000
  12.000   1.3310   0.01897   0.00700  -0.0354   0.0202   1.0000 137.4769 301.0000
