  
       XFOIL         Version 6.99
  
 Calculated polar for: Repaneled_Airfoil                               
  
 1 1 Reynolds number fixed          Mach number fixed         
  
 xtrf =   1.000 (top)        1.000 (bottom)  
 Mach =   0.000     Re =     1.000 e 6     Ncrit =   9.000  9.000
  
   alpha    CL        CD       CDp       CM     Top_Xtr  Bot_Xtr  Top_Itr  Bot_Itr
  ------ -------- --------- --------- -------- -------- -------- -------- --------
  -5.000  -0.5917   0.01329   0.00386  -0.0807   0.5896   0.0268  67.8721 167.1942
  -4.915  -0.5825   0.01318   0.00378  -0.0807   0.5882   0.0273  68.0061 167.3395
  -4.829  -0.5732   0.01307   0.00370  -0.0807   0.5868   0.0278  68.1458 167.4912
  -4.744  -0.5638   0.01297   0.00362  -0.0807   0.5854   0.0283  68.2873 167.6454
  -4.658  -0.5545   0.01288   0.00356  -0.0807   0.5839   0.0289  68.4274 167.7976
  -4.573  -0.5451   0.01279   0.00349  -0.0807   0.5825   0.0293  68.5628 167.9397
  -4.487  -0.5358   0.01270   0.00342  -0.0808   0.5812   0.0299  68.6921 168.0926
  -4.402  -0.5265   0.01259   0.00334  -0.0808   0.5800   0.0305  68.8147 168.2678
  -4.317  -0.5172   0.01250   0.00327  -0.0808   0.5788   0.0312  68.9320 168.4480
  -4.231  -0.5078   0.01242   0.00321  -0.0808   0.5776   0.0319  69.0480 168.6331
  -4.146  -0.4984   0.01233   0.00315  -0.0808   0.5763   0.0326  69.1713 168.8168
  -4.060  -0.4889   0.01225   0.00309  -0.0808   0.5750   0.0332  69.2977 168.9855
  -3.975  -0.4795   0.01215   0.00302  -0.0808   0.5737   0.0339  69.4239 169.1784
  -3.889  -0.4701   0.01206   0.00296  -0.0808   0.5724   0.0347  69.5477 169.3877
  -3.804  -0.4607   0.01198   0.00290  -0.0808   0.5712   0.0356  69.6668 169.6039
  -3.719  -0.4512   0.01191   0.00284  -0.0808   0.5700   0.0364  69.7808 169.8126
  -3.633  -0.4417   0.01185   0.00280  -0.0808   0.5689   0.0371  69.8904 169.9919
  -3.548  -0.4324   0.01176   0.00273  -0.0808   0.5678   0.0380  69.9970 170.2062
  -3.462  -0.4229   0.01167   0.00267  -0.0809   0.5667   0.0389  70.1059 170.4277
  -3.377  -0.4134   0.01159   0.00261  -0.0809   0.5655   0.0398  70.2209 170.6584
  -3.292  -0.4039   0.01151   0.00256  -0.0809   0.5643   0.0407  70.3371 170.8853
  -3.206  -0.3944   0.01143   0.00251  -0.0809   0.5631   0.0417  70.4529 171.1146
  -3.121  -0.3849   0.01135   0.00246  -0.0809   0.5620   0.0428  70.5659 171.3800
  -3.035  -0.3754   0.01128   0.00241  -0.0809   0.5608   0.0440  70.6750 171.6602
  -2.950  -0.3659   0.01122   0.00236  -0.0809   0.5598   0.0452  70.7800 171.9317
  -2.864  -0.3565   0.01114   0.00231  -0.0809   0.5587   0.0465  70.8812 172.2198
  -2.779  -0.3471   0.01108   0.00226  -0.0809   0.5577   0.0481  70.9812 172.5799
  -2.693  -0.3375   0.01102   0.00222  -0.0810   0.5567   0.0498  71.0811 172.9482
  -2.608  -0.3280   0.01092   0.00217  -0.0810   0.5556   0.0516  71.1865 173.3373
  -2.523  -0.3184   0.01084   0.00213  -0.0810   0.5545   0.0536  71.2941 173.7698
  -2.437  -0.3089   0.01077   0.00209  -0.0810   0.5534   0.0557  71.4017 174.2057
  -2.352  -0.2994   0.01069   0.00205  -0.0810   0.5523   0.0581  71.5079 174.7010
  -2.266  -0.2898   0.01063   0.00201  -0.0811   0.5512   0.0605  71.6126 175.1685
  -2.181  -0.2803   0.01056   0.00197  -0.0811   0.5501   0.0630  71.7155 175.6740
  -2.095  -0.2708   0.01050   0.00193  -0.0811   0.5491   0.0654  71.8172 176.1284
  -2.010  -0.2614   0.01043   0.00189  -0.0811   0.5480   0.0679  71.9184 176.5970
  -1.839  -0.2423   0.01030   0.00182  -0.0811   0.5459   0.0726  72.1268 177.4708
  -1.754  -0.2326   0.01025   0.00179  -0.0811   0.5447   0.0749  72.2394 177.8907
  -1.668  -0.2230   0.01018   0.00176  -0.0811   0.5435   0.0769  72.3544 178.2552
  -1.583  -0.2134   0.01011   0.00172  -0.0812   0.5423   0.0791  72.4687 178.6371
  -1.498  -0.2037   0.01008   0.00169  -0.0812   0.5412   0.0811  72.5813 178.9925
  -1.412  -0.1942   0.01000   0.00165  -0.0812   0.5401   0.0833  72.6890 179.3652
  -1.327  -0.1847   0.00996   0.00162  -0.0812   0.5390   0.0856  72.7921 179.7562
  -1.241  -0.1751   0.00991   0.00159  -0.0812   0.5380   0.0878  72.8913 180.1316
  -1.156  -0.1657   0.00987   0.00156  -0.0812   0.5370   0.0903  72.9888 180.5442
  -1.070  -0.1559   0.00982   0.00154  -0.0812   0.5360   0.0928  73.0799 180.9545
  -0.985  -0.1463   0.00976   0.00151  -0.0812   0.5350   0.0953  73.1751 181.3605
  -0.899  -0.1367   0.00971   0.00149  -0.0812   0.5340   0.0980  73.2718 181.7987
  -0.814  -0.1270   0.00966   0.00146  -0.0812   0.5330   0.1006  73.3678 182.2089
  -0.729  -0.1174   0.00960   0.00144  -0.0812   0.5321   0.1035  73.4625 182.6542
  -0.643  -0.1077   0.00956   0.00142  -0.0813   0.5311   0.1062  73.5559 183.0720
  -0.558  -0.0982   0.00951   0.00140  -0.0813   0.5302   0.1090  73.6466 183.5062
  -0.472  -0.0885   0.00948   0.00138  -0.0813   0.5293   0.1118  73.7348 183.9281
  -0.387  -0.0790   0.00944   0.00135  -0.0813   0.5284   0.1144  73.8206 184.3129
  -0.301  -0.0694   0.00941   0.00133  -0.0813   0.5275   0.1171  73.9056 184.7133
  -0.216  -0.0598   0.00939   0.00131  -0.0812   0.5266   0.1196  73.9921 185.0781
  -0.131  -0.0502   0.00933   0.00130  -0.0813   0.5258   0.1223  74.0727 185.4708
  -0.045  -0.0405   0.00929   0.00128  -0.0813   0.5249   0.1251  74.1595 185.8791
   0.040  -0.0308   0.00925   0.00126  -0.0813   0.5239   0.1279  74.2485 186.2742
   0.126  -0.0212   0.00921   0.00125  -0.0813   0.5230   0.1310  74.3386 186.7098
   0.211  -0.0115   0.00918   0.00123  -0.0813   0.5221   0.1339  74.4283 187.1126
   0.296  -0.0018   0.00913   0.00122  -0.0813   0.5212   0.1371  74.5163 187.5573
   0.467   0.0174   0.00906   0.00119  -0.0813   0.5194   0.1436  74.6871 188.4428
   0.553   0.0270   0.00904   0.00117  -0.0813   0.5185   0.1470  74.7691 188.8923
   0.638   0.0366   0.00901   0.00116  -0.0813   0.5177   0.1501  74.8497 189.3029
   0.724   0.0461   0.00899   0.00115  -0.0813   0.5169   0.1533  74.9306 189.7353
   0.809   0.0557   0.00897   0.00114  -0.0813   0.5160   0.1564  75.0121 190.1419
   0.894   0.0654   0.00893   0.00113  -0.0813   0.5152   0.1599  75.0884 190.5918
   1.065   0.0848   0.00887   0.00112  -0.0813   0.5135   0.1669  75.2531 191.4814
   1.151   0.0945   0.00884   0.00111  -0.0813   0.5126   0.1706  75.3377 191.9568
   1.236   0.1042   0.00881   0.00111  -0.0813   0.5118   0.1744  75.4214 192.4222
   1.322   0.1139   0.00880   0.00111  -0.0813   0.5109   0.1783  75.5040 192.9103
   1.407   0.1235   0.00877   0.00111  -0.0814   0.5101   0.1818  75.5853 193.3373
   1.492   0.1333   0.00876   0.00111  -0.0814   0.5093   0.1855  75.6648 193.7866
   1.578   0.1429   0.00875   0.00111  -0.0814   0.5085   0.1888  75.7424 194.1891
   1.663   0.1526   0.00874   0.00111  -0.0814   0.5077   0.1922  75.8188 194.5992
   1.749   0.1623   0.00875   0.00111  -0.0814   0.5069   0.1955  75.8955 194.9984
   1.834   0.1719   0.00875   0.00113  -0.0814   0.5060   0.1986  75.9746 195.3659
   1.920   0.1817   0.00875   0.00113  -0.0814   0.5053   0.2020  76.0472 195.7624
   2.005   0.1915   0.00874   0.00114  -0.0814   0.5045   0.2049  76.1212 196.1002
   2.091   0.2013   0.00874   0.00115  -0.0814   0.5037   0.2075  76.1988 196.4078
   2.176   0.2112   0.00873   0.00116  -0.0814   0.5029   0.2102  76.2784 196.7150
   2.347   0.2308   0.00874   0.00118  -0.0815   0.5012   0.2148  76.4402 197.2541
   2.432   0.2406   0.00874   0.00120  -0.0815   0.5004   0.2172  76.5210 197.5211
   2.518   0.2505   0.00875   0.00120  -0.0815   0.4995   0.2196  76.6009 197.7923
   2.603   0.2603   0.00876   0.00120  -0.0815   0.4987   0.2216  76.6800 198.0303
   2.688   0.2700   0.00877   0.00122  -0.0815   0.4979   0.2234  76.7576 198.2264
   2.774   0.2798   0.00879   0.00124  -0.0816   0.4971   0.2252  76.8349 198.4308
   2.859   0.2895   0.00881   0.00124  -0.0816   0.4963   0.2270  76.9134 198.6358
   2.945   0.2992   0.00884   0.00125  -0.0815   0.4955   0.2288  76.9958 198.8337
   3.030   0.3091   0.00885   0.00125  -0.0816   0.4947   0.2303  77.0682 199.0074
   3.116   0.3189   0.00884   0.00126  -0.0816   0.4939   0.2317  77.1459 199.1626
   3.201   0.3288   0.00884   0.00128  -0.0816   0.4931   0.2331  77.2276 199.3232
   3.286   0.3387   0.00885   0.00130  -0.0816   0.4922   0.2347  77.3109 199.4946
   3.372   0.3485   0.00886   0.00131  -0.0817   0.4913   0.2363  77.3939 199.6731
   3.457   0.3584   0.00888   0.00131  -0.0817   0.4905   0.2378  77.4749 199.8439
   3.543   0.3682   0.00890   0.00131  -0.0817   0.4897   0.2391  77.5532 199.9895
   3.628   0.3779   0.00889   0.00132  -0.0817   0.4889   0.2403  77.6288 200.1200
   3.714   0.3877   0.00890   0.00133  -0.0817   0.4881   0.2414  77.7022 200.2396
   3.799   0.3974   0.00892   0.00134  -0.0817   0.4874   0.2425  77.7739 200.3579
   3.884   0.4071   0.00894   0.00135  -0.0817   0.4866   0.2436  77.8453 200.4794
   3.970   0.4168   0.00896   0.00136  -0.0817   0.4859   0.2448  77.9178 200.6079
   4.055   0.4265   0.00899   0.00136  -0.0817   0.4851   0.2460  77.9938 200.7405
   4.141   0.4364   0.00900   0.00137  -0.0817   0.4844   0.2472  78.0578 200.8739
   4.226   0.4462   0.00902   0.00137  -0.0817   0.4837   0.2483  78.1263 200.9929
   4.312   0.4560   0.00901   0.00138  -0.0817   0.4830   0.2494  78.1969 201.1155
   4.397   0.4657   0.00901   0.00140  -0.0818   0.4823   0.2504  78.2687 201.2238
   4.482   0.4755   0.00902   0.00141  -0.0818   0.4815   0.2514  78.3405 201.3274
   4.568   0.4853   0.00902   0.00142  -0.0818   0.4808   0.2523  78.4113 201.4329
   4.653   0.4951   0.00904   0.00142  -0.0818   0.4801   0.2533  78.4804 201.5400
   4.739   0.5048   0.00905   0.00143  -0.0818   0.4794   0.2543  78.5478 201.6465
   4.824   0.5146   0.00906   0.00143  -0.0818   0.4787   0.2553  78.6140 201.7536
   4.910   0.5243   0.00908   0.00143  -0.0818   0.4780   0.2562  78.6793 201.8583
   4.995   0.5341   0.00910   0.00143  -0.0818   0.4773   0.2571  78.7436 201.9542
   5.080   0.5437   0.00911   0.00143  -0.0818   0.4767   0.2580  78.8071 202.0491
   5.166   0.5532   0.00912   0.00144  -0.0818   0.4760   0.2589  78.8709 202.1460
   5.251   0.5628   0.00914   0.00145  -0.0817   0.4753   0.2598  78.9370 202.2378
   5.337   0.5724   0.00917   0.00146  -0.0817   0.4746   0.2606  79.0050 202.3289
   5.422   0.5822   0.00917   0.00147  -0.0817   0.4741   0.2615  79.0602 202.4206
   5.508   0.5920   0.00918   0.00148  -0.0817   0.4734   0.2624  79.1197 202.5162
   5.593   0.6017   0.00919   0.00148  -0.0817   0.4728   0.2633  79.1822 202.6133
   5.678   0.6115   0.00919   0.00149  -0.0817   0.4721   0.2642  79.2462 202.7077
   5.764   0.6212   0.00921   0.00149  -0.0817   0.4715   0.2650  79.3110 202.7992
   5.849   0.6310   0.00922   0.00149  -0.0817   0.4708   0.2658  79.3759 202.8871
   5.935   0.6407   0.00924   0.00149  -0.0818   0.4701   0.2666  79.4401 202.9665
   6.020   0.6504   0.00924   0.00150  -0.0817   0.4695   0.2674  79.5029 203.0505
   6.106   0.6600   0.00923   0.00150  -0.0817   0.4688   0.2682  79.5642 203.1368
   6.191   0.6696   0.00924   0.00151  -0.0817   0.4682   0.2690  79.6241 203.2212
   6.276   0.6793   0.00925   0.00152  -0.0817   0.4676   0.2698  79.6831 203.3081
   6.362   0.6889   0.00927   0.00152  -0.0817   0.4670   0.2706  79.7414 203.3954
   6.447   0.6985   0.00929   0.00153  -0.0817   0.4663   0.2714  79.8065 203.4833
   6.533   0.7081   0.00931   0.00152  -0.0816   0.4655   0.2722  79.8888 203.5704
   6.618   0.7175   0.00935   0.00152  -0.0816   0.4643   0.2731  80.0004 203.6582
   6.704   0.7273   0.00934   0.00152  -0.0816   0.4631   0.2739  80.1166 203.7466
   6.789   0.7371   0.00933   0.00150  -0.0816   0.4616   0.2747  80.2632 203.8314
   6.874   0.7468   0.00932   0.00149  -0.0816   0.4598   0.2755  80.4345 203.9123
   6.960   0.7566   0.00932   0.00146  -0.0816   0.4580   0.2762  80.6114 203.9843
   7.045   0.7660   0.00931   0.00144  -0.0815   0.4561   0.2770  80.7938 204.0735
   7.131   0.7752   0.00934   0.00143  -0.0815   0.4541   0.2778  80.9894 204.1559
   7.216   0.7850   0.00931   0.00142  -0.0815   0.4521   0.2785  81.1843 204.2323
   7.301   0.7947   0.00929   0.00140  -0.0815   0.4499   0.2792  81.3932 204.3093
   7.387   0.8044   0.00929   0.00139  -0.0815   0.4480   0.2800  81.5817 204.3864
   7.472   0.8139   0.00930   0.00138  -0.0814   0.4462   0.2807  81.7510 204.4665
   7.558   0.8232   0.00933   0.00137  -0.0814   0.4446   0.2815  81.9124 204.5491
   7.643   0.8328   0.00935   0.00136  -0.0813   0.4429   0.2823  82.0689 204.6339
   7.729   0.8425   0.00934   0.00135  -0.0813   0.4414   0.2831  82.2234 204.7187
   7.814   0.8522   0.00935   0.00135  -0.0813   0.4399   0.2839  82.3622 204.8006
   7.899   0.8618   0.00936   0.00134  -0.0813   0.4385   0.2846  82.4956 204.8760
   7.985   0.8714   0.00938   0.00134  -0.0813   0.4371   0.2853  82.6405 204.9418
   8.070   0.8809   0.00940   0.00133  -0.0812   0.4354   0.2858  82.8033 204.9968
   8.156   0.8901   0.00942   0.00132  -0.0811   0.4336   0.2865  82.9798 205.0735
   8.241   0.8998   0.00940   0.00132  -0.0811   0.4315   0.2872  83.1751 205.1475
   8.327   0.9094   0.00940   0.00131  -0.0811   0.4292   0.2879  83.3994 205.2184
   8.412   0.9189   0.00941   0.00130  -0.0811   0.4270   0.2886  83.6202 205.2894
   8.498   0.9282   0.00944   0.00130  -0.0810   0.4249   0.2893  83.8250 205.3649
   8.583   0.9375   0.00947   0.00129  -0.0809   0.4229   0.2901  84.0192 205.4447
   8.668   0.9472   0.00947   0.00129  -0.0809   0.4207   0.2909  84.2279 205.5288
   8.754   0.9567   0.00949   0.00129  -0.0809   0.4184   0.2917  84.4594 205.6138
   8.839   0.9661   0.00952   0.00128  -0.0808   0.4158   0.2925  84.7056 205.6968
   8.925   0.9753   0.00956   0.00128  -0.0808   0.4131   0.2933  84.9694 205.7765
   9.010   0.9849   0.00957   0.00127  -0.0807   0.4099   0.2940  85.2834 205.8526
   9.095   0.9942   0.00960   0.00126  -0.0807   0.4057   0.2947  85.6948 205.9224
   9.181   1.0034   0.00965   0.00126  -0.0806   0.4013   0.2953  86.1272 205.9855
   9.266   1.0126   0.00968   0.00126  -0.0805   0.3959   0.2960  86.6620 206.0660
   9.352   1.0216   0.00973   0.00126  -0.0804   0.3901   0.2969  87.2266 206.1518
   9.437   1.0304   0.00980   0.00127  -0.0803   0.3830   0.2977  87.9329 206.2386
   9.523   1.0393   0.00988   0.00128  -0.0801   0.3735   0.2986  88.8750 206.3315
   9.608   1.0475   0.01001   0.00130  -0.0799   0.3606   0.2995  90.1561 206.4275
   9.694   1.0547   0.01025   0.00137  -0.0796   0.3369   0.3005  92.5436 206.5237
   9.779   1.0500   0.01169   0.00206  -0.0776   0.2162   0.3009 105.4730 206.5627
   9.864   1.0527   0.01237   0.00243  -0.0766   0.1742   0.3016 110.5034 206.6361
   9.950   1.0591   0.01266   0.00258  -0.0761   0.1558   0.3024 112.8629 206.7267
  10.035   1.0661   0.01290   0.00269  -0.0758   0.1406   0.3033 114.8965 206.8141
  10.121   1.0731   0.01313   0.00278  -0.0754   0.1266   0.3041 116.8609 206.8940
  10.206   1.0803   0.01333   0.00287  -0.0750   0.1140   0.3048 118.6910 206.9671
  10.291   1.0875   0.01353   0.00296  -0.0747   0.1039   0.3056 120.2377 207.0511
  10.377   1.0949   0.01370   0.00305  -0.0743   0.0951   0.3065 121.6331 207.1472
  10.462   1.1023   0.01387   0.00313  -0.0740   0.0880   0.3075 122.8028 207.2426
  10.548   1.1098   0.01402   0.00320  -0.0737   0.0820   0.3084 123.8310 207.3395
  10.633   1.1174   0.01417   0.00327  -0.0734   0.0767   0.3094 124.7588 207.4407
  10.719   1.1250   0.01432   0.00335  -0.0731   0.0723   0.3104 125.5686 207.5462
  10.804   1.1326   0.01446   0.00342  -0.0727   0.0684   0.3115 126.2951 207.6550
  10.975   1.1478   0.01474   0.00355  -0.0721   0.0614   0.3137 127.6454 207.8783
  11.060   1.1553   0.01488   0.00362  -0.0718   0.0585   0.3147 128.2164 207.9854
  11.146   1.1628   0.01502   0.00368  -0.0715   0.0559   0.3159 128.7547 208.1127
  11.231   1.1703   0.01515   0.00375  -0.0711   0.0536   0.3173 129.2259 208.2460
  11.317   1.1778   0.01528   0.00382  -0.0708   0.0514   0.3187 129.7006 208.3896
  11.402   1.1851   0.01542   0.00389  -0.0705   0.0495   0.3202 130.1094 208.5413
  11.487   1.1927   0.01554   0.00395  -0.0701   0.0477   0.3218 130.5079 208.7060
  11.573   1.1998   0.01569   0.00402  -0.0698   0.0460   0.3234 130.8857 208.8743
  11.744   1.2144   0.01594   0.00415  -0.0690   0.0432   0.3274 131.5563 209.2754
  11.829   1.2213   0.01609   0.00423  -0.0686   0.0418   0.3299 131.8680 209.5268
  11.915   1.2284   0.01623   0.00430  -0.0682   0.0407   0.3327 132.1436 209.8136
  12.000   1.2357   0.01635   0.00437  -0.0679   0.0395   0.3360 132.4256 210.1455
