  
       XFOIL         Version 6.99
  
 Calculated polar for: Repaneled_Airfoil                               
  
 1 1 Reynolds number fixed          Mach number fixed         
  
 xtrf =   1.000 (top)        1.000 (bottom)  
 Mach =   0.000     Re =     1.000 e 6     Ncrit =   9.000  9.000
  
   alpha    CL        CD       CDp       CM     Top_Xtr  Bot_Xtr  Top_Itr  Bot_Itr
  ------ -------- --------- --------- -------- -------- -------- -------- --------
  -5.000  -0.4047   0.00928   0.00173  -0.0402   0.8601   0.0492  37.6298 172.3964
  -4.915  -0.3955   0.00924   0.00170  -0.0401   0.8564   0.0511  38.1376 172.8221
  -4.829  -0.3862   0.00919   0.00167  -0.0400   0.8525   0.0530  38.6587 173.2252
  -4.744  -0.3770   0.00914   0.00164  -0.0399   0.8491   0.0551  39.1178 173.6668
  -4.658  -0.3677   0.00909   0.00161  -0.0399   0.8455   0.0572  39.5936 174.0923
  -4.573  -0.3585   0.00904   0.00158  -0.0398   0.8425   0.0594  40.0008 174.5394
  -4.487  -0.3490   0.00900   0.00155  -0.0397   0.8390   0.0615  40.4502 174.9707
  -4.402  -0.3398   0.00894   0.00152  -0.0397   0.8358   0.0636  40.8618 175.3802
  -4.317  -0.3304   0.00889   0.00149  -0.0396   0.8326   0.0657  41.2785 175.7924
  -4.231  -0.3210   0.00884   0.00146  -0.0395   0.8293   0.0676  41.7007 176.1452
  -4.146  -0.3117   0.00879   0.00142  -0.0395   0.8262   0.0695  42.0845 176.5144
  -4.060  -0.3022   0.00874   0.00139  -0.0394   0.8228   0.0715  42.5134 176.8903
  -3.975  -0.2929   0.00869   0.00136  -0.0394   0.8198   0.0735  42.8943 177.2598
  -3.889  -0.2835   0.00864   0.00133  -0.0393   0.8166   0.0758  43.2845 177.6714
  -3.804  -0.2740   0.00860   0.00130  -0.0393   0.8135   0.0780  43.6699 178.0712
  -3.719  -0.2647   0.00855   0.00127  -0.0392   0.8108   0.0805  44.0043 178.5046
  -3.633  -0.2551   0.00851   0.00125  -0.0392   0.8075   0.0831  44.3958 178.9541
  -3.548  -0.2457   0.00845   0.00122  -0.0391   0.8045   0.0857  44.7644 179.4031
  -3.462  -0.2363   0.00841   0.00119  -0.0391   0.8016   0.0885  45.1121 179.8827
  -3.377  -0.2268   0.00836   0.00117  -0.0390   0.7983   0.0914  45.5084 180.3601
  -3.292  -0.2173   0.00832   0.00114  -0.0390   0.7952   0.0945  45.8679 180.8790
  -3.206  -0.2079   0.00827   0.00112  -0.0389   0.7921   0.0977  46.2346 181.3853
  -3.121  -0.1984   0.00823   0.00109  -0.0389   0.7889   0.1010  46.6130 181.9222
  -3.035  -0.1890   0.00818   0.00107  -0.0389   0.7860   0.1044  46.9487 182.4574
  -2.864  -0.1699   0.00808   0.00102  -0.0388   0.7796   0.1122  47.6884 183.6432
  -2.779  -0.1605   0.00805   0.00100  -0.0388   0.7768   0.1161  48.0138 184.2321
  -2.693  -0.1509   0.00800   0.00097  -0.0387   0.7734   0.1203  48.3998 184.8572
  -2.608  -0.1415   0.00795   0.00095  -0.0387   0.7702   0.1244  48.7661 185.4477
  -2.523  -0.1320   0.00791   0.00093  -0.0387   0.7672   0.1287  49.1083 186.0759
  -2.437  -0.1225   0.00786   0.00090  -0.0386   0.7638   0.1337  49.4948 186.7756
  -2.352  -0.1131   0.00781   0.00088  -0.0386   0.7606   0.1388  49.8506 187.4925
  -2.266  -0.1036   0.00776   0.00085  -0.0386   0.7574   0.1445  50.2089 188.2684
  -2.181  -0.0941   0.00771   0.00083  -0.0385   0.7539   0.1509  50.5951 189.1347
  -2.095  -0.0847   0.00766   0.00080  -0.0385   0.7508   0.1583  50.9436 190.1091
  -2.010  -0.0753   0.00759   0.00078  -0.0384   0.7473   0.1667  51.3229 191.1980
  -1.925  -0.0659   0.00752   0.00076  -0.0384   0.7439   0.1769  51.7020 192.4836
  -1.839  -0.0567   0.00746   0.00073  -0.0383   0.7408   0.1891  52.0441 193.9931
  -1.754  -0.0474   0.00737   0.00071  -0.0383   0.7371   0.2039  52.4383 195.7749
  -1.668  -0.0382   0.00729   0.00068  -0.0383   0.7337   0.2204  52.8146 197.6937
  -1.583  -0.0289   0.00720   0.00066  -0.0382   0.7302   0.2379  53.1843 199.6789
  -1.498  -0.0197   0.00712   0.00065  -0.0382   0.7265   0.2553  53.5894 201.6151
  -1.412  -0.0105   0.00705   0.00063  -0.0381   0.7230   0.2722  53.9573 203.4416
  -1.327  -0.0011   0.00698   0.00061  -0.0381   0.7192   0.2891  54.3592 205.2358
  -1.241   0.0082   0.00691   0.00060  -0.0380   0.7155   0.3057  54.7583 206.9670
  -1.156   0.0174   0.00685   0.00059  -0.0380   0.7119   0.3220  55.1334 208.6507
  -1.070   0.0268   0.00678   0.00057  -0.0379   0.7079   0.3382  55.5537 210.2937
  -0.985   0.0361   0.00673   0.00056  -0.0379   0.7043   0.3545  55.9416 211.9229
  -0.899   0.0454   0.00666   0.00055  -0.0378   0.7003   0.3701  56.3548 213.4782
  -0.729   0.0641   0.00655   0.00053  -0.0377   0.6924   0.4026  57.1724 216.6639
  -0.643   0.0734   0.00649   0.00053  -0.0377   0.6881   0.4197  57.6179 218.3200
  -0.472   0.0919   0.00638   0.00051  -0.0375   0.6797   0.4550  58.4793 221.7226
  -0.387   0.1011   0.00633   0.00050  -0.0375   0.6756   0.4725  58.9034 223.3926
  -0.301   0.1104   0.00627   0.00050  -0.0374   0.6713   0.4907  59.3369 225.1312
  -0.216   0.1196   0.00622   0.00049  -0.0373   0.6669   0.5092  59.7862 226.8969
  -0.131   0.1288   0.00616   0.00048  -0.0373   0.6627   0.5280  60.2127 228.6976
  -0.045   0.1380   0.00610   0.00048  -0.0372   0.6582   0.5488  60.6658 230.6900
   0.040   0.1470   0.00604   0.00047  -0.0371   0.6541   0.5713  61.0755 232.8501
   0.126   0.1561   0.00596   0.00047  -0.0370   0.6496   0.5953  61.5248 235.1719
   0.211   0.1650   0.00589   0.00046  -0.0368   0.6455   0.6205  61.9413 237.6391
   0.296   0.1739   0.00581   0.00046  -0.0367   0.6412   0.6465  62.3680 240.2215
   0.467   0.1913   0.00563   0.00045  -0.0363   0.6328   0.7045  63.2012 246.1336
   0.553   0.1996   0.00552   0.00046  -0.0360   0.6283   0.7396  63.6447 249.8767
   0.638   0.2073   0.00540   0.00047  -0.0356   0.6242   0.7807  64.0499 254.4815
   0.724   0.2149   0.00529   0.00051  -0.0350   0.6198   0.8240  64.4897 259.6768
   0.809   0.2228   0.00526   0.00055  -0.0345   0.6155   0.8553  64.9096 263.7529
   0.894   0.2314   0.00525   0.00058  -0.0342   0.6111   0.8745  65.3381 266.4358
   0.980   0.2401   0.00527   0.00060  -0.0339   0.6066   0.8878  65.7783 268.4014
   1.065   0.2490   0.00529   0.00062  -0.0337   0.6025   0.8981  66.1839 269.9882
   1.151   0.2580   0.00530   0.00063  -0.0334   0.5980   0.9058  66.6199 271.2321
   1.236   0.2669   0.00533   0.00065  -0.0332   0.5939   0.9126  67.0171 272.3506
   1.322   0.2759   0.00535   0.00066  -0.0330   0.5895   0.9186  67.4482 273.3927
   1.407   0.2847   0.00538   0.00068  -0.0328   0.5851   0.9244  67.8745 274.4172
   1.492   0.2936   0.00541   0.00069  -0.0325   0.5807   0.9300  68.3001 275.4368
   1.578   0.3024   0.00544   0.00071  -0.0323   0.5761   0.9352  68.7513 276.4293
   1.663   0.3111   0.00547   0.00072  -0.0320   0.5717   0.9400  69.1729 277.3896
   1.749   0.3197   0.00550   0.00074  -0.0317   0.5670   0.9447  69.6303 278.3553
   1.834   0.3282   0.00554   0.00075  -0.0313   0.5626   0.9494  70.0464 279.3489
   1.920   0.3367   0.00557   0.00077  -0.0310   0.5580   0.9541  70.4933 280.3859
   2.005   0.3451   0.00561   0.00079  -0.0306   0.5535   0.9586  70.9267 281.4382
   2.091   0.3538   0.00565   0.00081  -0.0303   0.5489   0.9629  71.3668 282.5022
   2.176   0.3627   0.00569   0.00082  -0.0301   0.5442   0.9667  71.8215 283.4959
   2.261   0.3721   0.00573   0.00084  -0.0300   0.5397   0.9700  72.2535 284.3773
   2.347   0.3818   0.00577   0.00086  -0.0299   0.5349   0.9727  72.7096 285.1691
   2.432   0.3920   0.00581   0.00087  -0.0300   0.5305   0.9750  73.1290 285.8568
   2.518   0.4028   0.00585   0.00088  -0.0302   0.5256   0.9767  73.6017 286.3763
   2.603   0.4130   0.00589   0.00089  -0.0303   0.5209   0.9785  74.0501 286.9545
   2.688   0.4244   0.00593   0.00090  -0.0307   0.5156   0.9796  74.5571 287.3212
   2.774   0.4354   0.00598   0.00092  -0.0310   0.5106   0.9809  75.0393 287.7865
   2.859   0.4468   0.00602   0.00093  -0.0314   0.5052   0.9821  75.5550 288.1908
   2.945   0.4585   0.00607   0.00094  -0.0318   0.5000   0.9830  76.0510 288.5206
   3.030   0.4696   0.00611   0.00095  -0.0322   0.4944   0.9842  76.5803 288.9884
   3.116   0.4818   0.00617   0.00097  -0.0327   0.4891   0.9848  77.0932 289.2242
   3.201   0.4942   0.00621   0.00098  -0.0333   0.4833   0.9854  77.6425 289.4665
   3.286   0.5062   0.00626   0.00099  -0.0339   0.4780   0.9862  78.1520 289.7739
   3.372   0.5183   0.00631   0.00101  -0.0344   0.4724   0.9870  78.6882 290.0901
   3.457   0.5308   0.00636   0.00102  -0.0351   0.4671   0.9875  79.1945 290.2963
   3.543   0.5431   0.00641   0.00104  -0.0357   0.4612   0.9881  79.7574 290.5673
   3.628   0.5548   0.00646   0.00105  -0.0362   0.4555   0.9890  80.3063 290.9725
   3.714   0.5672   0.00652   0.00106  -0.0368   0.4491   0.9895  80.9179 291.2065
   3.799   0.5794   0.00657   0.00108  -0.0374   0.4425   0.9900  81.5533 291.4712
   3.884   0.5912   0.00664   0.00109  -0.0379   0.4359   0.9908  82.1855 291.8433
   3.970   0.6034   0.00670   0.00111  -0.0385   0.4288   0.9915  82.8690 292.1725
   4.055   0.6156   0.00675   0.00112  -0.0391   0.4220   0.9920  83.5337 292.4661
   4.141   0.6275   0.00682   0.00114  -0.0397   0.4149   0.9927  84.2143 292.8597
   4.226   0.6396   0.00689   0.00116  -0.0403   0.4074   0.9933  84.9482 293.2159
   4.312   0.6520   0.00695   0.00117  -0.0409   0.3994   0.9939  85.7245 293.5794
   4.397   0.6642   0.00703   0.00119  -0.0415   0.3913   0.9947  86.5213 294.0522
   4.482   0.6769   0.00710   0.00121  -0.0423   0.3832   0.9953  87.3127 294.4486
   4.568   0.6893   0.00718   0.00123  -0.0429   0.3751   0.9960  88.1107 294.9979
   4.653   0.7022   0.00727   0.00125  -0.0437   0.3661   0.9966  89.0000 295.4806
   4.739   0.7151   0.00735   0.00128  -0.0445   0.3571   0.9973  89.8987 296.0912
   4.824   0.7281   0.00743   0.00130  -0.0453   0.3484   0.9980  90.7613 296.7265
   4.910   0.7413   0.00751   0.00132  -0.0462   0.3395   0.9986  91.6609 297.5030
   4.995   0.7549   0.00760   0.00134  -0.0471   0.3305   0.9993  92.5735 298.5543
   5.080   0.7687   0.00768   0.00137  -0.0481   0.3219   1.0000  93.4489 301.0000
   5.166   0.7767   0.00776   0.00139  -0.0478   0.3150   1.0000  94.1529 301.0000
   5.251   0.7847   0.00783   0.00140  -0.0475   0.3078   1.0000  94.8933 301.0000
   5.337   0.7927   0.00790   0.00142  -0.0473   0.3011   1.0000  95.5875 301.0000
   5.422   0.8005   0.00798   0.00144  -0.0470   0.2947   1.0000  96.2570 301.0000
   5.508   0.8083   0.00806   0.00146  -0.0467   0.2882   1.0000  96.9445 301.0000
   5.593   0.8163   0.00812   0.00148  -0.0464   0.2818   1.0000  97.6204 301.0000
   5.678   0.8240   0.00820   0.00151  -0.0460   0.2758   1.0000  98.2606 301.0000
   5.764   0.8317   0.00828   0.00153  -0.0457   0.2698   1.0000  98.9005 301.0000
   5.849   0.8395   0.00835   0.00155  -0.0454   0.2640   1.0000  99.5345 301.0000
   5.935   0.8471   0.00844   0.00158  -0.0450   0.2581   1.0000 100.1722 301.0000
   6.020   0.8547   0.00852   0.00160  -0.0447   0.2518   1.0000 100.8643 301.0000
   6.106   0.8623   0.00860   0.00163  -0.0443   0.2461   1.0000 101.4973 301.0000
   6.191   0.8697   0.00869   0.00166  -0.0439   0.2407   1.0000 102.0938 301.0000
   6.276   0.8773   0.00876   0.00169  -0.0436   0.2353   1.0000 102.6954 301.0000
   6.362   0.8847   0.00884   0.00172  -0.0432   0.2304   1.0000 103.2533 301.0000
   6.447   0.8922   0.00892   0.00174  -0.0428   0.2251   1.0000 103.8502 301.0000
   6.533   0.8996   0.00900   0.00177  -0.0424   0.2205   1.0000 104.3831 301.0000
   6.618   0.9069   0.00909   0.00180  -0.0420   0.2158   1.0000 104.9263 301.0000
   6.704   0.9143   0.00916   0.00183  -0.0416   0.2112   1.0000 105.4702 301.0000
   6.789   0.9215   0.00926   0.00187  -0.0412   0.2063   1.0000 106.0432 301.0000
   6.874   0.9289   0.00934   0.00190  -0.0408   0.2009   1.0000 106.6761 301.0000
   6.960   0.9360   0.00943   0.00193  -0.0404   0.1957   1.0000 107.2980 301.0000
   7.045   0.9431   0.00954   0.00197  -0.0399   0.1904   1.0000 107.9382 301.0000
   7.131   0.9504   0.00962   0.00200  -0.0395   0.1852   1.0000 108.5832 301.0000
   7.216   0.9575   0.00972   0.00204  -0.0390   0.1799   1.0000 109.2385 301.0000
   7.387   0.9717   0.00993   0.00212  -0.0382   0.1686   1.0000 110.6639 301.0000
   7.472   0.9788   0.01003   0.00216  -0.0377   0.1631   1.0000 111.3692 301.0000
   7.558   0.9858   0.01015   0.00221  -0.0373   0.1571   1.0000 112.1466 301.0000
   7.643   0.9927   0.01027   0.00225  -0.0368   0.1505   1.0000 113.0253 301.0000
   7.729   0.9997   0.01040   0.00231  -0.0364   0.1441   1.0000 113.8888 301.0000
   7.814   1.0067   0.01053   0.00236  -0.0359   0.1377   1.0000 114.7625 301.0000
   7.899   1.0136   0.01066   0.00242  -0.0355   0.1309   1.0000 115.7143 301.0000
   7.985   1.0205   0.01081   0.00248  -0.0350   0.1242   1.0000 116.6710 301.0000
   8.070   1.0274   0.01095   0.00255  -0.0346   0.1178   1.0000 117.6094 301.0000
   8.156   1.0343   0.01111   0.00262  -0.0342   0.1112   1.0000 118.6092 301.0000
   8.241   1.0413   0.01127   0.00269  -0.0337   0.1049   1.0000 119.5676 301.0000
   8.327   1.0484   0.01142   0.00277  -0.0333   0.0993   1.0000 120.4578 301.0000
   8.412   1.0556   0.01158   0.00285  -0.0330   0.0936   1.0000 121.3760 301.0000
   8.498   1.0627   0.01174   0.00293  -0.0326   0.0883   1.0000 122.2580 301.0000
   8.583   1.0699   0.01191   0.00301  -0.0322   0.0836   1.0000 123.0539 301.0000
   8.668   1.0773   0.01206   0.00309  -0.0319   0.0789   1.0000 123.8757 301.0000
   8.754   1.0847   0.01221   0.00317  -0.0316   0.0746   1.0000 124.6571 301.0000
   8.839   1.0921   0.01237   0.00325  -0.0313   0.0707   1.0000 125.3720 301.0000
   8.925   1.0994   0.01253   0.00333  -0.0310   0.0672   1.0000 126.0329 301.0000
   9.010   1.1071   0.01267   0.00341  -0.0307   0.0637   1.0000 126.6942 301.0000
   9.095   1.1146   0.01282   0.00349  -0.0304   0.0607   1.0000 127.2931 301.0000
   9.181   1.1221   0.01298   0.00357  -0.0301   0.0578   1.0000 127.8758 301.0000
   9.266   1.1298   0.01312   0.00364  -0.0298   0.0554   1.0000 128.3747 301.0000
   9.352   1.1373   0.01327   0.00373  -0.0295   0.0532   1.0000 128.8502 301.0000
   9.437   1.1450   0.01341   0.00380  -0.0293   0.0512   1.0000 129.2765 301.0000
   9.523   1.1527   0.01355   0.00388  -0.0290   0.0491   1.0000 129.7264 301.0000
   9.608   1.1603   0.01370   0.00396  -0.0288   0.0473   1.0000 130.1204 301.0000
   9.694   1.1680   0.01383   0.00403  -0.0285   0.0456   1.0000 130.5086 301.0000
   9.779   1.1754   0.01399   0.00411  -0.0282   0.0440   1.0000 130.8803 301.0000
   9.864   1.1831   0.01413   0.00419  -0.0280   0.0426   1.0000 131.2064 301.0000
   9.950   1.1908   0.01427   0.00426  -0.0277   0.0413   1.0000 131.5330 301.0000
  10.035   1.1981   0.01443   0.00435  -0.0274   0.0400   1.0000 131.8393 301.0000
  10.121   1.2056   0.01458   0.00443  -0.0272   0.0389   1.0000 132.1081 301.0000
  10.206   1.2134   0.01470   0.00450  -0.0269   0.0378   1.0000 132.3785 301.0000
  10.291   1.2209   0.01485   0.00458  -0.0267   0.0367   1.0000 132.6515 301.0000
  10.377   1.2282   0.01502   0.00467  -0.0264   0.0357   1.0000 132.9050 301.0000
  10.462   1.2356   0.01516   0.00475  -0.0261   0.0349   1.0000 133.1245 301.0000
  10.548   1.2432   0.01530   0.00483  -0.0258   0.0341   1.0000 133.3457 301.0000
  10.633   1.2506   0.01545   0.00491  -0.0256   0.0332   1.0000 133.5730 301.0000
  10.719   1.2577   0.01561   0.00500  -0.0252   0.0324   1.0000 133.7949 301.0000
  10.804   1.2646   0.01580   0.00510  -0.0249   0.0315   1.0000 134.0148 301.0000
  10.889   1.2721   0.01593   0.00518  -0.0246   0.0309   1.0000 134.1983 301.0000
  10.975   1.2794   0.01607   0.00526  -0.0244   0.0302   1.0000 134.4012 301.0000
  11.060   1.2865   0.01623   0.00535  -0.0241   0.0295   1.0000 134.6027 301.0000
  11.146   1.2933   0.01642   0.00545  -0.0237   0.0288   1.0000 134.7978 301.0000
  11.231   1.2996   0.01663   0.00557  -0.0233   0.0280   1.0000 135.0007 301.0000
  11.317   1.3071   0.01675   0.00563  -0.0230   0.0275   1.0000 135.1554 301.0000
  11.402   1.3143   0.01689   0.00571  -0.0227   0.0269   1.0000 135.3362 301.0000
  11.487   1.3213   0.01704   0.00579  -0.0224   0.0263   1.0000 135.5222 301.0000
  11.573   1.3280   0.01721   0.00589  -0.0221   0.0257   1.0000 135.7002 301.0000
  11.658   1.3344   0.01740   0.00599  -0.0217   0.0251   1.0000 135.8687 301.0000
  11.744   1.3406   0.01760   0.00610  -0.0213   0.0246   1.0000 136.0272 301.0000
  11.829   1.3475   0.01775   0.00618  -0.0209   0.0242   1.0000 136.1601 301.0000
  11.915   1.3542   0.01790   0.00627  -0.0206   0.0237   1.0000 136.3026 301.0000
  12.000   1.3606   0.01807   0.00636  -0.0202   0.0233   1.0000 136.4437 301.0000
