  
       XFOIL         Version 6.99
  
 Calculated polar for: Repaneled_Airfoil                               
  
 1 1 Reynolds number fixed          Mach number fixed         
  
 xtrf =   1.000 (top)        1.000 (bottom)  
 Mach =   0.000     Re =     1.000 e 6     Ncrit =   9.000  9.000
  
   alpha    CL        CD       CDp       CM     Top_Xtr  Bot_Xtr  Top_Itr  Bot_Itr
  ------ -------- --------- --------- -------- -------- -------- -------- --------
  -5.000  -0.1169   0.00795   0.00128  -0.0782   0.8319   0.1444  41.2462 188.1191
  -4.915  -0.1072   0.00790   0.00126  -0.0782   0.8307   0.1489  41.4025 188.7264
  -4.829  -0.0975   0.00785   0.00124  -0.0782   0.8295   0.1530  41.5531 189.2709
  -4.744  -0.0877   0.00781   0.00122  -0.0782   0.8284   0.1572  41.6960 189.8316
  -4.658  -0.0780   0.00776   0.00120  -0.0782   0.8273   0.1611  41.8292 190.3285
  -4.573  -0.0683   0.00773   0.00117  -0.0782   0.8264   0.1652  41.9510 190.8607
  -4.487  -0.0585   0.00769   0.00116  -0.0782   0.8252   0.1690  42.1028 191.3472
  -4.402  -0.0487   0.00764   0.00115  -0.0783   0.8238   0.1730  42.2774 191.8634
  -4.317  -0.0390   0.00760   0.00113  -0.0783   0.8224   0.1768  42.4449 192.3439
  -4.231  -0.0292   0.00756   0.00112  -0.0783   0.8212   0.1810  42.6012 192.8681
  -4.146  -0.0194   0.00752   0.00110  -0.0783   0.8200   0.1849  42.7458 193.3517
  -4.060  -0.0097   0.00749   0.00108  -0.0783   0.8189   0.1890  42.8794 193.8548
  -3.975   0.0001   0.00745   0.00106  -0.0783   0.8179   0.1926  43.0046 194.2907
  -3.889   0.0099   0.00741   0.00105  -0.0783   0.8163   0.1963  43.1976 194.7364
  -3.804   0.0197   0.00738   0.00103  -0.0783   0.8148   0.1997  43.3850 195.1414
  -3.719   0.0294   0.00734   0.00102  -0.0784   0.8134   0.2034  43.5619 195.5837
  -3.548   0.0490   0.00727   0.00098  -0.0784   0.8108   0.2109  43.8746 196.4661
  -3.462   0.0588   0.00724   0.00096  -0.0784   0.8097   0.2149  44.0108 196.9432
  -3.377   0.0685   0.00719   0.00095  -0.0784   0.8080   0.2190  44.2158 197.4159
  -3.292   0.0784   0.00716   0.00093  -0.0784   0.8063   0.2233  44.4155 197.9154
  -3.206   0.0881   0.00712   0.00092  -0.0784   0.8048   0.2274  44.6048 198.3808
  -3.121   0.0979   0.00708   0.00090  -0.0785   0.8033   0.2318  44.7777 198.8797
  -3.035   0.1076   0.00705   0.00088  -0.0785   0.8020   0.2360  44.9335 199.3568
  -2.950   0.1174   0.00701   0.00086  -0.0785   0.8004   0.2408  45.1257 199.8940
  -2.864   0.1272   0.00697   0.00085  -0.0785   0.7985   0.2456  45.3499 200.4298
  -2.693   0.1467   0.00689   0.00082  -0.0785   0.7952   0.2562  45.7488 201.6037
  -2.608   0.1565   0.00686   0.00080  -0.0786   0.7937   0.2618  45.9171 202.2096
  -2.523   0.1662   0.00682   0.00078  -0.0786   0.7920   0.2679  46.1159 202.8771
  -2.437   0.1760   0.00678   0.00077  -0.0786   0.7899   0.2743  46.3609 203.5584
  -2.352   0.1857   0.00674   0.00076  -0.0786   0.7879   0.2810  46.5968 204.2798
  -2.095   0.2149   0.00662   0.00072  -0.0787   0.7821   0.3028  47.2715 206.5681
  -2.010   0.2247   0.00658   0.00071  -0.0787   0.7798   0.3107  47.5358 207.3862
  -1.925   0.2344   0.00654   0.00070  -0.0787   0.7777   0.3190  47.7760 208.2460
  -1.839   0.2440   0.00651   0.00068  -0.0787   0.7759   0.3277  47.9871 209.1311
  -1.668   0.2635   0.00643   0.00066  -0.0788   0.7707   0.3451  48.5729 210.8968
  -1.583   0.2732   0.00640   0.00065  -0.0788   0.7685   0.3534  48.8276 211.7264
  -1.498   0.2829   0.00637   0.00064  -0.0788   0.7663   0.3619  49.0776 212.5777
  -1.412   0.2926   0.00633   0.00063  -0.0788   0.7633   0.3710  49.4062 213.4776
  -1.327   0.3023   0.00630   0.00062  -0.0788   0.7606   0.3803  49.7107 214.3949
  -1.241   0.3119   0.00627   0.00061  -0.0788   0.7582   0.3898  49.9767 215.3330
  -1.156   0.3216   0.00624   0.00061  -0.0788   0.7551   0.3993  50.3266 216.2630
  -1.070   0.3313   0.00621   0.00060  -0.0788   0.7520   0.4085  50.6665 217.1566
  -0.899   0.3506   0.00616   0.00059  -0.0788   0.7460   0.4266  51.3231 218.9158
  -0.814   0.3602   0.00613   0.00058  -0.0788   0.7428   0.4359  51.6711 219.8161
  -0.729   0.3698   0.00612   0.00057  -0.0788   0.7400   0.4456  51.9778 220.7515
  -0.643   0.3794   0.00609   0.00057  -0.0788   0.7366   0.4557  52.3422 221.7133
  -0.558   0.3890   0.00607   0.00057  -0.0788   0.7334   0.4658  52.6929 222.6828
  -0.472   0.3985   0.00605   0.00056  -0.0788   0.7304   0.4759  53.0135 223.6550
  -0.387   0.4082   0.00603   0.00056  -0.0788   0.7267   0.4861  53.4070 224.6259
  -0.301   0.4177   0.00601   0.00056  -0.0788   0.7231   0.4961  53.7928 225.5914
  -0.216   0.4272   0.00600   0.00056  -0.0788   0.7196   0.5064  54.1659 226.5724
  -0.131   0.4367   0.00598   0.00056  -0.0788   0.7158   0.5171  54.5727 227.5916
  -0.045   0.4461   0.00597   0.00056  -0.0787   0.7123   0.5281  54.9429 228.6449
   0.040   0.4557   0.00596   0.00056  -0.0787   0.7085   0.5395  55.3409 229.7452
   0.126   0.4651   0.00595   0.00056  -0.0787   0.7047   0.5514  55.7356 230.8848
   0.211   0.4745   0.00594   0.00057  -0.0786   0.7012   0.5635  56.0988 232.0506
   0.296   0.4839   0.00591   0.00057  -0.0786   0.6973   0.5762  56.5081 233.2773
   0.382   0.4932   0.00590   0.00058  -0.0786   0.6936   0.5894  56.8922 234.5522
   0.467   0.5026   0.00589   0.00058  -0.0785   0.6899   0.6033  57.2749 235.9036
   0.553   0.5119   0.00587   0.00059  -0.0785   0.6860   0.6176  57.6745 237.3067
   0.638   0.5211   0.00586   0.00059  -0.0784   0.6824   0.6329  58.0436 238.8229
   0.724   0.5304   0.00584   0.00060  -0.0783   0.6783   0.6490  58.4605 240.4277
   0.809   0.5394   0.00582   0.00061  -0.0782   0.6743   0.6667  58.8661 242.2037
   0.894   0.5485   0.00579   0.00062  -0.0781   0.6701   0.6856  59.2960 244.1403
   0.980   0.5574   0.00577   0.00062  -0.0780   0.6653   0.7059  59.7829 246.2465
   1.065   0.5661   0.00572   0.00062  -0.0778   0.6604   0.7289  60.2767 248.6891
   1.151   0.5741   0.00564   0.00062  -0.0775   0.6551   0.7610  60.8075 252.2080
   1.236   0.5907   0.00527   0.00073  -0.0788   0.6487   0.9613  61.4504 282.0695
   1.322   0.6055   0.00533   0.00075  -0.0799   0.6418   0.9760  62.1358 286.1153
   1.407   0.6185   0.00539   0.00077  -0.0807   0.6344   0.9830  62.8690 288.5081
   1.492   0.6319   0.00545   0.00079  -0.0816   0.6264   0.9880  63.6586 290.5048
   1.578   0.6461   0.00552   0.00080  -0.0826   0.6178   0.9916  64.5103 292.2300
   1.663   0.6608   0.00559   0.00082  -0.0838   0.6087   0.9944  65.3978 293.8473
   1.749   0.6763   0.00567   0.00083  -0.0852   0.5991   0.9968  66.3311 295.5536
   1.834   0.6923   0.00574   0.00085  -0.0867   0.5896   0.9987  67.2558 297.6228
   1.920   0.7067   0.00582   0.00086  -0.0878   0.5803   1.0000  68.1546 301.0000
   2.005   0.7153   0.00588   0.00087  -0.0876   0.5723   1.0000  68.9238 301.0000
   2.091   0.7240   0.00594   0.00088  -0.0875   0.5645   1.0000  69.6755 301.0000
   2.176   0.7326   0.00600   0.00089  -0.0873   0.5568   1.0000  70.4195 301.0000
   2.261   0.7412   0.00607   0.00090  -0.0871   0.5488   1.0000  71.1893 301.0000
   2.347   0.7496   0.00615   0.00092  -0.0869   0.5403   1.0000  72.0005 301.0000
   2.432   0.7581   0.00622   0.00093  -0.0867   0.5314   1.0000  72.8488 301.0000
   2.518   0.7665   0.00629   0.00095  -0.0865   0.5225   1.0000  73.7042 301.0000
   2.603   0.7749   0.00637   0.00096  -0.0863   0.5139   1.0000  74.5180 301.0000
   2.688   0.7833   0.00644   0.00098  -0.0861   0.5060   1.0000  75.2771 301.0000
   2.774   0.7916   0.00653   0.00100  -0.0859   0.4979   1.0000  76.0491 301.0000
   2.859   0.7999   0.00661   0.00102  -0.0857   0.4888   1.0000  76.9212 301.0000
   2.945   0.8081   0.00670   0.00104  -0.0854   0.4789   1.0000  77.8573 301.0000
   3.030   0.8162   0.00679   0.00106  -0.0852   0.4687   1.0000  78.8342 301.0000
   3.116   0.8242   0.00689   0.00109  -0.0849   0.4581   1.0000  79.8529 301.0000
   3.201   0.8321   0.00700   0.00112  -0.0846   0.4475   1.0000  80.8626 301.0000
   3.286   0.8401   0.00710   0.00114  -0.0844   0.4377   1.0000  81.8107 301.0000
   3.372   0.8482   0.00719   0.00117  -0.0841   0.4279   1.0000  82.7527 301.0000
   3.457   0.8561   0.00729   0.00120  -0.0838   0.4181   1.0000  83.6945 301.0000
   3.543   0.8639   0.00740   0.00123  -0.0835   0.4079   1.0000  84.6849 301.0000
   3.628   0.8716   0.00752   0.00126  -0.0832   0.3967   1.0000  85.7751 301.0000
   3.714   0.8791   0.00765   0.00130  -0.0829   0.3848   1.0000  86.9422 301.0000
   3.799   0.8866   0.00778   0.00134  -0.0825   0.3726   1.0000  88.1437 301.0000
   3.884   0.8940   0.00792   0.00138  -0.0821   0.3590   1.0000  89.4882 301.0000
   3.970   0.9011   0.00807   0.00143  -0.0817   0.3456   1.0000  90.8243 301.0000
   4.055   0.9083   0.00822   0.00148  -0.0813   0.3319   1.0000  92.2028 301.0000
   4.141   0.9154   0.00838   0.00153  -0.0809   0.3183   1.0000  93.5891 301.0000
   4.226   0.9223   0.00854   0.00158  -0.0805   0.3045   1.0000  95.0134 301.0000
   4.312   0.9293   0.00870   0.00164  -0.0801   0.2909   1.0000  96.4381 301.0000
   4.482   0.9428   0.00905   0.00176  -0.0792   0.2622   1.0000  99.5003 301.0000
   4.568   0.9493   0.00924   0.00183  -0.0787   0.2464   1.0000 101.2251 301.0000
   4.653   0.9555   0.00945   0.00190  -0.0781   0.2300   1.0000 103.0671 301.0000
   4.739   0.9614   0.00968   0.00199  -0.0775   0.2111   1.0000 105.2447 301.0000
   4.824   0.9669   0.00993   0.00208  -0.0769   0.1908   1.0000 107.6709 301.0000
   4.910   0.9724   0.01019   0.00219  -0.0762   0.1720   1.0000 110.0009 301.0000
   5.080   0.9843   0.01064   0.00237  -0.0751   0.1435   1.0000 113.7308 301.0000
   5.166   0.9908   0.01083   0.00245  -0.0746   0.1333   1.0000 115.1442 301.0000
   5.251   0.9975   0.01100   0.00253  -0.0741   0.1244   1.0000 116.4188 301.0000
   5.337   1.0045   0.01116   0.00259  -0.0737   0.1170   1.0000 117.4999 301.0000
   5.422   1.0115   0.01131   0.00266  -0.0733   0.1103   1.0000 118.5112 301.0000
   5.508   1.0186   0.01145   0.00272  -0.0729   0.1042   1.0000 119.4462 301.0000
   5.593   1.0258   0.01160   0.00278  -0.0726   0.0989   1.0000 120.2891 301.0000
   5.678   1.0330   0.01174   0.00284  -0.0722   0.0938   1.0000 121.1076 301.0000
   5.764   1.0403   0.01187   0.00289  -0.0719   0.0891   1.0000 121.8882 301.0000
   5.849   1.0477   0.01200   0.00295  -0.0715   0.0851   1.0000 122.5734 301.0000
   5.935   1.0550   0.01213   0.00301  -0.0712   0.0814   1.0000 123.2049 301.0000
   6.020   1.0623   0.01226   0.00306  -0.0709   0.0778   1.0000 123.8472 301.0000
   6.106   1.0698   0.01238   0.00311  -0.0705   0.0746   1.0000 124.4282 301.0000
   6.276   1.0845   0.01263   0.00322  -0.0699   0.0687   1.0000 125.5159 301.0000
   6.362   1.0916   0.01277   0.00329  -0.0695   0.0661   1.0000 126.0058 301.0000
   6.447   1.0992   0.01288   0.00334  -0.0692   0.0637   1.0000 126.4851 301.0000
   6.533   1.1064   0.01302   0.00340  -0.0689   0.0613   1.0000 126.9555 301.0000
   6.618   1.1138   0.01314   0.00345  -0.0686   0.0591   1.0000 127.3888 301.0000
   6.704   1.1210   0.01327   0.00351  -0.0683   0.0570   1.0000 127.8220 301.0000
   6.789   1.1283   0.01340   0.00357  -0.0679   0.0551   1.0000 128.2046 301.0000
   6.874   1.1356   0.01352   0.00362  -0.0676   0.0533   1.0000 128.5907 301.0000
   6.960   1.1425   0.01367   0.00369  -0.0672   0.0516   1.0000 128.9563 301.0000
   7.045   1.1499   0.01379   0.00374  -0.0669   0.0500   1.0000 129.2991 301.0000
   7.131   1.1571   0.01392   0.00380  -0.0666   0.0484   1.0000 129.6684 301.0000
   7.216   1.1639   0.01407   0.00387  -0.0662   0.0468   1.0000 130.0089 301.0000
   7.301   1.1712   0.01418   0.00392  -0.0659   0.0455   1.0000 130.3241 301.0000
   7.387   1.1782   0.01432   0.00399  -0.0655   0.0441   1.0000 130.6474 301.0000
   7.472   1.1849   0.01447   0.00406  -0.0651   0.0428   1.0000 130.9511 301.0000
   7.558   1.1920   0.01460   0.00411  -0.0648   0.0417   1.0000 131.2143 301.0000
   7.643   1.1990   0.01473   0.00417  -0.0644   0.0405   1.0000 131.4863 301.0000
   7.729   1.2056   0.01488   0.00424  -0.0640   0.0395   1.0000 131.7423 301.0000
   7.814   1.2117   0.01505   0.00432  -0.0635   0.0385   1.0000 131.9908 301.0000
   7.899   1.2186   0.01516   0.00437  -0.0631   0.0376   1.0000 132.2034 301.0000
   7.985   1.2251   0.01528   0.00443  -0.0626   0.0367   1.0000 132.4390 301.0000
   8.070   1.2311   0.01543   0.00449  -0.0621   0.0358   1.0000 132.6677 301.0000
   8.156   1.2368   0.01559   0.00457  -0.0615   0.0350   1.0000 132.8800 301.0000
   8.241   1.2426   0.01574   0.00464  -0.0610   0.0342   1.0000 133.0712 301.0000
   8.327   1.2489   0.01587   0.00470  -0.0605   0.0335   1.0000 133.2546 301.0000
   8.412   1.2550   0.01602   0.00477  -0.0600   0.0328   1.0000 133.4444 301.0000
   8.498   1.2609   0.01617   0.00484  -0.0595   0.0322   1.0000 133.6266 301.0000
   8.583   1.2666   0.01635   0.00492  -0.0590   0.0315   1.0000 133.8005 301.0000
   8.668   1.2719   0.01655   0.00502  -0.0584   0.0309   1.0000 133.9790 301.0000
   8.754   1.2781   0.01670   0.00509  -0.0579   0.0304   1.0000 134.1195 301.0000
   8.839   1.2843   0.01685   0.00517  -0.0575   0.0298   1.0000 134.2689 301.0000
   8.925   1.2903   0.01701   0.00525  -0.0570   0.0293   1.0000 134.4227 301.0000
   9.010   1.2961   0.01719   0.00534  -0.0565   0.0288   1.0000 134.5719 301.0000
   9.095   1.3017   0.01738   0.00543  -0.0561   0.0283   1.0000 134.7144 301.0000
   9.181   1.3070   0.01760   0.00554  -0.0555   0.0278   1.0000 134.8568 301.0000
   9.266   1.3118   0.01785   0.00567  -0.0549   0.0273   1.0000 135.0064 301.0000
   9.352   1.3182   0.01800   0.00575  -0.0545   0.0269   1.0000 135.1122 301.0000
   9.437   1.3243   0.01817   0.00584  -0.0541   0.0265   1.0000 135.2343 301.0000
   9.523   1.3302   0.01835   0.00593  -0.0537   0.0261   1.0000 135.3619 301.0000
   9.608   1.3360   0.01854   0.00603  -0.0533   0.0256   1.0000 135.4889 301.0000
   9.694   1.3417   0.01875   0.00613  -0.0528   0.0252   1.0000 135.6119 301.0000
   9.779   1.3471   0.01897   0.00625  -0.0524   0.0249   1.0000 135.7287 301.0000
   9.864   1.3522   0.01921   0.00637  -0.0519   0.0245   1.0000 135.8431 301.0000
   9.950   1.3568   0.01949   0.00652  -0.0513   0.0241   1.0000 135.9625 301.0000
  10.035   1.3621   0.01971   0.00664  -0.0509   0.0238   1.0000 136.0557 301.0000
  10.121   1.3679   0.01992   0.00675  -0.0505   0.0235   1.0000 136.1455 301.0000
  10.206   1.3735   0.02013   0.00687  -0.0501   0.0232   1.0000 136.2408 301.0000
  10.291   1.3791   0.02035   0.00699  -0.0496   0.0229   1.0000 136.3373 301.0000
  10.377   1.3845   0.02057   0.00711  -0.0492   0.0226   1.0000 136.4323 301.0000
  10.462   1.3898   0.02081   0.00724  -0.0488   0.0223   1.0000 136.5257 301.0000
  10.548   1.3949   0.02106   0.00737  -0.0484   0.0220   1.0000 136.6162 301.0000
  10.633   1.3999   0.02133   0.00752  -0.0479   0.0218   1.0000 136.7042 301.0000
  10.719   1.4045   0.02161   0.00767  -0.0474   0.0215   1.0000 136.7929 301.0000
  10.804   1.4087   0.02194   0.00785  -0.0469   0.0212   1.0000 136.8848 301.0000
  10.889   1.4122   0.02231   0.00807  -0.0463   0.0209   1.0000 136.9830 301.0000
  10.975   1.4171   0.02258   0.00822  -0.0458   0.0207   1.0000 137.0453 301.0000
  11.060   1.4223   0.02283   0.00837  -0.0455   0.0206   1.0000 137.1083 301.0000
  11.146   1.4274   0.02310   0.00852  -0.0450   0.0204   1.0000 137.1769 301.0000
  11.231   1.4323   0.02337   0.00868  -0.0446   0.0201   1.0000 137.2492 301.0000
  11.317   1.4371   0.02366   0.00885  -0.0442   0.0199   1.0000 137.3230 301.0000
  11.402   1.4418   0.02395   0.00902  -0.0438   0.0197   1.0000 137.3964 301.0000
  11.487   1.4465   0.02425   0.00919  -0.0434   0.0195   1.0000 137.4691 301.0000
  11.573   1.4510   0.02456   0.00937  -0.0430   0.0193   1.0000 137.5403 301.0000
  11.658   1.4554   0.02489   0.00956  -0.0425   0.0191   1.0000 137.6107 301.0000
  11.744   1.4595   0.02523   0.00976  -0.0421   0.0189   1.0000 137.6799 301.0000
  11.829   1.4633   0.02559   0.00997  -0.0416   0.0187   1.0000 137.7489 301.0000
  11.915   1.4667   0.02599   0.01021  -0.0411   0.0185   1.0000 137.8198 301.0000
  12.000   1.4694   0.02644   0.01049  -0.0405   0.0183   1.0000 137.8946 301.0000
