  
       XFOIL         Version 6.99
  
 Calculated polar for: Repaneled_Airfoil                               
  
 1 1 Reynolds number fixed          Mach number fixed         
  
 xtrf =   1.000 (top)        1.000 (bottom)  
 Mach =   0.000     Re =     1.000 e 6     Ncrit =   9.000  9.000
  
   alpha    CL        CD       CDp       CM     Top_Xtr  Bot_Xtr  Top_Itr  Bot_Itr
  ------ -------- --------- --------- -------- -------- -------- -------- --------
  -5.000  -0.8212   0.01122   0.00304   0.0313   0.9893   0.0710  10.9059 176.8943
  -4.915  -0.8094   0.01104   0.00294   0.0307   0.9881   0.0783  11.4651 178.2222
  -4.829  -0.7964   0.01080   0.00282   0.0298   0.9871   0.0900  11.9000 180.2356
  -4.744  -0.7862   0.01043   0.00263   0.0293   0.9854   0.1129  12.5651 183.8610
  -4.658  -0.7822   0.00928   0.00212   0.0295   0.9837   0.2201  13.2308 197.7810
  -4.573  -0.7683   0.00915   0.00210   0.0284   0.9819   0.2361  13.9026 199.5975
  -4.487  -0.7561   0.00906   0.00207   0.0278   0.9796   0.2434  14.7129 200.4142
  -4.402  -0.7439   0.00901   0.00205   0.0273   0.9769   0.2488  15.5756 201.0068
  -4.317  -0.7326   0.00893   0.00202   0.0269   0.9737   0.2528  16.5791 201.4527
  -4.231  -0.7217   0.00888   0.00200   0.0266   0.9695   0.2561  17.7835 201.8151
  -4.146  -0.7105   0.00883   0.00197   0.0263   0.9641   0.2587  19.2290 202.0938
  -4.060  -0.6978   0.00874   0.00193   0.0256   0.9560   0.2613  21.2068 202.3773
  -3.975  -0.6797   0.00927   0.00175   0.0239   0.6918   0.2642  57.2306 202.6952
  -3.889  -0.6722   0.00940   0.00176   0.0243   0.6565   0.2659  60.8363 202.8708
  -3.804  -0.6634   0.00944   0.00176   0.0245   0.6405   0.2673  62.4356 203.0317
  -3.719  -0.6547   0.00942   0.00175   0.0246   0.6287   0.2690  63.6046 203.2083
  -3.633  -0.6458   0.00942   0.00174   0.0247   0.6187   0.2706  64.5916 203.3805
  -3.548  -0.6367   0.00941   0.00173   0.0248   0.6096   0.2722  65.4806 203.5559
  -3.462  -0.6275   0.00942   0.00172   0.0249   0.6009   0.2738  66.3320 203.7237
  -3.377  -0.6182   0.00943   0.00172   0.0249   0.5925   0.2752  67.1463 203.8737
  -3.206  -0.5998   0.00939   0.00169   0.0250   0.5769   0.2781  68.6598 204.1807
  -3.121  -0.5907   0.00937   0.00167   0.0251   0.5692   0.2795  69.4052 204.3343
  -3.035  -0.5815   0.00936   0.00165   0.0252   0.5614   0.2809  70.1632 204.4781
  -2.950  -0.5723   0.00935   0.00164   0.0252   0.5534   0.2821  70.9266 204.6098
  -2.864  -0.5629   0.00934   0.00162   0.0253   0.5456   0.2832  71.6820 204.7255
  -2.779  -0.5535   0.00934   0.00161   0.0253   0.5380   0.2842  72.4067 204.8335
  -2.693  -0.5442   0.00934   0.00159   0.0253   0.5303   0.2852  73.1412 204.9318
  -2.523  -0.5257   0.00930   0.00155   0.0255   0.5138   0.2873  74.7266 205.1554
  -2.437  -0.5166   0.00927   0.00153   0.0255   0.5048   0.2887  75.5838 205.3007
  -2.352  -0.5073   0.00926   0.00151   0.0256   0.4949   0.2902  76.5290 205.4569
  -2.266  -0.4981   0.00926   0.00149   0.0256   0.4830   0.2916  77.6727 205.6079
  -2.181  -0.4889   0.00927   0.00147   0.0257   0.4691   0.2928  79.0000 205.7365
  -2.095  -0.4796   0.00929   0.00145   0.0258   0.4531   0.2939  80.5373 205.8551
  -2.010  -0.4704   0.00933   0.00143   0.0258   0.4329   0.2951  82.4828 205.9725
  -1.925  -0.4617   0.00936   0.00140   0.0260   0.4050   0.2965  85.1874 206.1218
  -1.839  -0.4546   0.00961   0.00137   0.0263   0.2903   0.2978  96.7341 206.2589
  -1.754  -0.4464   0.00977   0.00138   0.0265   0.2321   0.2991 103.0715 206.3956
  -1.668  -0.4371   0.00978   0.00138   0.0265   0.2259   0.3004 103.7750 206.5310
  -1.583  -0.4276   0.00979   0.00138   0.0265   0.2221   0.3016 104.2176 206.6534
  -1.498  -0.4181   0.00979   0.00138   0.0265   0.2191   0.3027 104.5644 206.7640
  -1.412  -0.4086   0.00980   0.00138   0.0265   0.2164   0.3036 104.8708 206.8637
  -1.327  -0.3991   0.00980   0.00137   0.0265   0.2143   0.3044 105.1182 206.9479
  -1.156  -0.3801   0.00977   0.00135   0.0266   0.2105   0.3059 105.5591 207.1038
  -1.070  -0.3707   0.00976   0.00135   0.0266   0.2088   0.3068 105.7614 207.1883
  -0.985  -0.3612   0.00975   0.00134   0.0266   0.2071   0.3076 105.9556 207.2752
  -0.899  -0.3517   0.00974   0.00133   0.0266   0.2058   0.3085 106.1076 207.3663
  -0.814  -0.3421   0.00972   0.00132   0.0266   0.2046   0.3094 106.2567 207.4613
  -0.729  -0.3325   0.00970   0.00132   0.0266   0.2034   0.3104 106.4038 207.5619
  -0.643  -0.3230   0.00970   0.00131   0.0266   0.2021   0.3114 106.5498 207.6667
  -0.558  -0.3134   0.00969   0.00131   0.0266   0.2009   0.3124 106.6909 207.7745
  -0.472  -0.3038   0.00970   0.00131   0.0266   0.1998   0.3135 106.8328 207.8837
  -0.387  -0.2943   0.00971   0.00131   0.0266   0.1985   0.3145 106.9879 207.9899
  -0.301  -0.2847   0.00969   0.00130   0.0266   0.1975   0.3158 107.1030 208.1223
  -0.216  -0.2752   0.00966   0.00129   0.0266   0.1964   0.3172 107.2318 208.2629
  -0.131  -0.2656   0.00964   0.00129   0.0266   0.1953   0.3187 107.3685 208.4155
  -0.045  -0.2560   0.00962   0.00128   0.0266   0.1942   0.3203 107.5068 208.5810
   0.040  -0.2464   0.00961   0.00128   0.0266   0.1930   0.3220 107.6423 208.7581
   0.126  -0.2368   0.00961   0.00127   0.0266   0.1919   0.3238 107.7751 208.9423
   0.211  -0.2273   0.00961   0.00127   0.0266   0.1908   0.3259 107.9110 209.1511
   0.296  -0.2178   0.00959   0.00126   0.0266   0.1898   0.3283 108.0402 209.3941
   0.382  -0.2081   0.00956   0.00126   0.0265   0.1888   0.3310 108.1551 209.6699
   0.467  -0.1985   0.00954   0.00125   0.0265   0.1878   0.3340 108.2802 209.9695
   0.553  -0.1889   0.00951   0.00124   0.0265   0.1868   0.3375 108.4064 210.3280
   0.638  -0.1794   0.00948   0.00124   0.0265   0.1858   0.3419 108.5300 210.7664
   0.724  -0.1698   0.00945   0.00122   0.0265   0.1848   0.3469 108.6502 211.2736
   0.809  -0.1604   0.00941   0.00121   0.0265   0.1838   0.3536 108.7671 211.9385
   0.894  -0.1510   0.00937   0.00120   0.0265   0.1829   0.3624 108.8827 212.8186
   0.980  -0.1418   0.00932   0.00118   0.0265   0.1819   0.3751 109.0062 214.0759
   1.065  -0.1326   0.00919   0.00115   0.0265   0.1812   0.3955 109.0993 216.0793
   1.151  -0.1239   0.00895   0.00108   0.0265   0.1803   0.4350 109.2066 219.9037
   1.236  -0.1180   0.00814   0.00088   0.0267   0.1795   0.5821 109.3089 233.9903
   1.322  -0.1092   0.00794   0.00088   0.0268   0.1784   0.6304 109.4382 238.7047
   1.407  -0.0999   0.00788   0.00092   0.0268   0.1774   0.6557 109.5741 241.2280
   1.492  -0.0903   0.00787   0.00095   0.0268   0.1763   0.6707 109.7084 242.7361
   1.578  -0.0806   0.00788   0.00098   0.0268   0.1752   0.6805 109.8419 243.7311
   1.663  -0.0709   0.00792   0.00101   0.0268   0.1741   0.6876 109.9826 244.4596
   1.749  -0.0610   0.00794   0.00103   0.0268   0.1732   0.6936 110.0953 245.0744
   1.834  -0.0512   0.00795   0.00106   0.0268   0.1722   0.6985 110.2180 245.5896
   1.920  -0.0412   0.00797   0.00108   0.0267   0.1712   0.7028 110.3477 246.0289
   2.005  -0.0314   0.00799   0.00111   0.0267   0.1702   0.7061 110.4804 246.3752
   2.091  -0.0215   0.00801   0.00113   0.0267   0.1692   0.7094 110.6111 246.7260
   2.176  -0.0116   0.00804   0.00114   0.0266   0.1682   0.7124 110.7366 247.0353
   2.261  -0.0019   0.00807   0.00116   0.0266   0.1672   0.7147 110.8590 247.2829
   2.347   0.0078   0.00812   0.00118   0.0266   0.1661   0.7172 110.9974 247.5452
   2.432   0.0178   0.00814   0.00120   0.0266   0.1652   0.7197 111.1176 247.8145
   2.518   0.0278   0.00816   0.00122   0.0265   0.1641   0.7220 111.2614 248.0523
   2.603   0.0376   0.00817   0.00124   0.0265   0.1629   0.7239 111.4165 248.2525
   2.688   0.0475   0.00820   0.00126   0.0265   0.1617   0.7259 111.5711 248.4716
   2.774   0.0574   0.00822   0.00127   0.0265   0.1606   0.7280 111.7196 248.6982
   2.859   0.0673   0.00826   0.00127   0.0264   0.1595   0.7301 111.8629 248.9155
   2.945   0.0770   0.00831   0.00129   0.0264   0.1583   0.7317 112.0100 249.0876
   3.030   0.0869   0.00832   0.00132   0.0264   0.1573   0.7331 112.1398 249.2452
   3.116   0.0968   0.00834   0.00134   0.0264   0.1562   0.7347 112.2924 249.4160
   3.201   0.1067   0.00836   0.00135   0.0263   0.1550   0.7364 112.4566 249.5973
   3.286   0.1166   0.00839   0.00136   0.0263   0.1537   0.7381 112.6187 249.7821
   3.372   0.1266   0.00842   0.00137   0.0262   0.1525   0.7398 112.7754 249.9619
   3.457   0.1363   0.00846   0.00138   0.0262   0.1514   0.7410 112.9333 250.0997
   3.543   0.1461   0.00849   0.00140   0.0262   0.1502   0.7422 113.0887 250.2325
   3.628   0.1559   0.00851   0.00143   0.0262   0.1489   0.7436 113.2569 250.3768
   3.714   0.1658   0.00853   0.00144   0.0262   0.1476   0.7449 113.4330 250.5261
   3.799   0.1757   0.00856   0.00145   0.0262   0.1464   0.7463 113.6056 250.6786
   3.884   0.1856   0.00859   0.00146   0.0261   0.1451   0.7477 113.7765 250.8328
   3.970   0.1954   0.00864   0.00146   0.0261   0.1437   0.7491 113.9602 250.9801
   4.055   0.2052   0.00866   0.00148   0.0261   0.1424   0.7501 114.1452 251.0902
   4.141   0.2150   0.00867   0.00150   0.0260   0.1409   0.7510 114.3509 251.1934
   4.226   0.2249   0.00870   0.00151   0.0260   0.1394   0.7520 114.5594 251.2976
   4.312   0.2347   0.00873   0.00152   0.0260   0.1380   0.7529 114.7548 251.4031
   4.397   0.2444   0.00877   0.00153   0.0260   0.1366   0.7539 114.9444 251.5091
   4.482   0.2542   0.00880   0.00154   0.0260   0.1353   0.7549 115.1300 251.6203
   4.568   0.2641   0.00882   0.00156   0.0259   0.1338   0.7559 115.3367 251.7366
   4.653   0.2740   0.00886   0.00157   0.0259   0.1323   0.7570 115.5555 251.8526
   4.739   0.2838   0.00889   0.00157   0.0259   0.1307   0.7580 115.7761 251.9654
   4.824   0.2935   0.00894   0.00158   0.0258   0.1291   0.7588 116.0024 252.0567
   4.910   0.3033   0.00895   0.00159   0.0258   0.1274   0.7596 116.2424 252.1412
   4.995   0.3131   0.00898   0.00161   0.0258   0.1256   0.7604 116.5070 252.2314
   5.080   0.3228   0.00901   0.00162   0.0258   0.1239   0.7612 116.7568 252.3283
   5.166   0.3324   0.00907   0.00163   0.0258   0.1223   0.7622 116.9886 252.4312
   5.251   0.3422   0.00910   0.00166   0.0258   0.1207   0.7631 117.2163 252.5381
   5.337   0.3520   0.00913   0.00167   0.0258   0.1190   0.7641 117.4659 252.6464
   5.422   0.3617   0.00918   0.00169   0.0258   0.1174   0.7651 117.7137 252.7576
   5.508   0.3714   0.00923   0.00170   0.0257   0.1157   0.7661 117.9558 252.8676
   5.593   0.3812   0.00927   0.00172   0.0257   0.1141   0.7670 118.2074 252.9708
   5.678   0.3910   0.00931   0.00173   0.0257   0.1122   0.7677 118.4968 253.0531
   5.764   0.4006   0.00935   0.00175   0.0257   0.1102   0.7684 118.7904 253.1274
   5.849   0.4101   0.00940   0.00177   0.0257   0.1084   0.7690 119.0712 253.2013
   5.935   0.4198   0.00943   0.00179   0.0257   0.1064   0.7697 119.3719 253.2747
   6.020   0.4295   0.00948   0.00181   0.0257   0.1045   0.7703 119.6815 253.3493
   6.106   0.4390   0.00954   0.00183   0.0257   0.1026   0.7710 119.9750 253.4305
   6.191   0.4487   0.00958   0.00186   0.0257   0.1008   0.7718 120.2589 253.5165
   6.276   0.4583   0.00963   0.00188   0.0257   0.0988   0.7726 120.5701 253.6067
   6.362   0.4679   0.00970   0.00190   0.0257   0.0970   0.7734 120.8668 253.6969
   6.447   0.4775   0.00975   0.00193   0.0257   0.0953   0.7742 121.1455 253.7854
   6.533   0.4872   0.00980   0.00195   0.0257   0.0934   0.7749 121.4607 253.8711
   6.618   0.4968   0.00987   0.00197   0.0257   0.0914   0.7756 121.7836 253.9524
   6.704   0.5063   0.00993   0.00200   0.0257   0.0896   0.7763 122.0860 254.0249
   6.789   0.5158   0.00998   0.00203   0.0257   0.0877   0.7769 122.4068 254.0922
   6.874   0.5252   0.01004   0.00207   0.0257   0.0857   0.7775 122.7449 254.1641
   6.960   0.5346   0.01012   0.00211   0.0258   0.0838   0.7781 123.0678 254.2400
   7.045   0.5442   0.01017   0.00214   0.0258   0.0818   0.7788 123.4137 254.3190
   7.131   0.5536   0.01024   0.00217   0.0258   0.0797   0.7795 123.7784 254.3987
   7.216   0.5630   0.01032   0.00221   0.0259   0.0779   0.7802 124.1098 254.4794
   7.301   0.5725   0.01038   0.00225   0.0259   0.0759   0.7810 124.4586 254.5633
   7.387   0.5819   0.01046   0.00228   0.0259   0.0740   0.7817 124.8047 254.6485
   7.472   0.5913   0.01054   0.00233   0.0259   0.0723   0.7824 125.1223 254.7344
   7.558   0.6008   0.01061   0.00236   0.0259   0.0705   0.7832 125.4544 254.8197
   7.643   0.6101   0.01070   0.00241   0.0260   0.0687   0.7839 125.7893 254.9019
   7.729   0.6195   0.01079   0.00245   0.0260   0.0671   0.7846 126.0965 254.9812
   7.814   0.6289   0.01085   0.00249   0.0260   0.0655   0.7852 126.4144 255.0478
   7.899   0.6382   0.01093   0.00254   0.0261   0.0638   0.7857 126.7411 255.1106
   7.985   0.6474   0.01103   0.00260   0.0261   0.0622   0.7863 127.0430 255.1751
   8.070   0.6568   0.01109   0.00264   0.0262   0.0607   0.7868 127.3424 255.2435
   8.156   0.6661   0.01118   0.00270   0.0262   0.0592   0.7875 127.6571 255.3185
   8.241   0.6752   0.01129   0.00276   0.0263   0.0577   0.7882 127.9603 255.4001
   8.327   0.6845   0.01136   0.00281   0.0263   0.0564   0.7889 128.2334 255.4874
   8.412   0.6938   0.01145   0.00287   0.0264   0.0550   0.7897 128.5254 255.5817
   8.498   0.7029   0.01156   0.00293   0.0264   0.0536   0.7906 128.8124 255.6828
   8.583   0.7121   0.01167   0.00300   0.0265   0.0523   0.7915 129.0807 255.7873
   8.668   0.7215   0.01175   0.00305   0.0265   0.0511   0.7924 129.3561 255.8918
   8.754   0.7307   0.01186   0.00310   0.0265   0.0497   0.7933 129.6483 255.9922
   8.839   0.7397   0.01197   0.00318   0.0266   0.0485   0.7939 129.9291 256.0744
   8.925   0.7489   0.01206   0.00324   0.0267   0.0473   0.7947 130.1849 256.1586
   9.010   0.7580   0.01215   0.00331   0.0268   0.0461   0.7954 130.4618 256.2471
   9.095   0.7670   0.01226   0.00338   0.0269   0.0449   0.7962 130.7379 256.3385
   9.181   0.7759   0.01239   0.00346   0.0270   0.0437   0.7970 131.0086 256.4305
   9.266   0.7851   0.01247   0.00352   0.0270   0.0427   0.7977 131.2417 256.5192
   9.352   0.7943   0.01258   0.00359   0.0271   0.0417   0.7984 131.4931 256.6029
   9.437   0.8032   0.01270   0.00367   0.0271   0.0407   0.7991 131.7348 256.6803
   9.523   0.8121   0.01285   0.00376   0.0272   0.0397   0.7997 131.9720 256.7562
   9.608   0.8213   0.01294   0.00382   0.0273   0.0389   0.8003 132.1686 256.8321
   9.694   0.8305   0.01304   0.00389   0.0273   0.0380   0.8010 132.3900 256.9089
   9.779   0.8396   0.01315   0.00396   0.0274   0.0371   0.8016 132.6128 256.9850
   9.864   0.8484   0.01328   0.00404   0.0275   0.0363   0.8022 132.8230 257.0502
   9.950   0.8571   0.01342   0.00414   0.0276   0.0355   0.8027 133.0241 257.1143
  10.035   0.8662   0.01351   0.00421   0.0277   0.0348   0.8033 133.2000 257.1828
  10.121   0.8752   0.01361   0.00429   0.0277   0.0341   0.8039 133.3933 257.2550
  10.206   0.8841   0.01373   0.00437   0.0278   0.0334   0.8045 133.5830 257.3300
  10.291   0.8928   0.01387   0.00446   0.0279   0.0327   0.8051 133.7626 257.4078
  10.377   0.9014   0.01403   0.00458   0.0281   0.0320   0.8058 133.9438 257.4895
  10.462   0.9103   0.01416   0.00467   0.0282   0.0315   0.8065 134.0913 257.5762
  10.548   0.9192   0.01427   0.00475   0.0282   0.0310   0.8073 134.2359 257.6667
  10.633   0.9281   0.01439   0.00484   0.0283   0.0304   0.8081 134.3890 257.7591
  10.719   0.9369   0.01453   0.00493   0.0284   0.0299   0.8088 134.5417 257.8507
  10.804   0.9456   0.01468   0.00503   0.0285   0.0294   0.8096 134.6902 257.9397
  10.889   0.9541   0.01486   0.00515   0.0286   0.0288   0.8102 134.8396 258.0207
  10.975   0.9622   0.01506   0.00531   0.0288   0.0282   0.8108 135.0031 258.0917
  11.060   0.9711   0.01516   0.00539   0.0289   0.0279   0.8114 135.1079 258.1646
  11.146   0.9799   0.01527   0.00547   0.0290   0.0275   0.8120 135.2332 258.2397
  11.231   0.9886   0.01540   0.00557   0.0291   0.0270   0.8126 135.3666 258.3160
  11.317   0.9972   0.01553   0.00567   0.0293   0.0266   0.8133 135.5009 258.3921
  11.402   1.0058   0.01568   0.00577   0.0294   0.0261   0.8139 135.6315 258.4679
  11.487   1.0142   0.01584   0.00589   0.0295   0.0257   0.8145 135.7563 258.5462
  11.573   1.0225   0.01604   0.00603   0.0297   0.0253   0.8152 135.8813 258.6265
  11.658   1.0304   0.01626   0.00619   0.0299   0.0249   0.8158 136.0101 258.7081
  11.744   1.0391   0.01639   0.00628   0.0300   0.0246   0.8165 136.0985 258.7891
  11.829   1.0477   0.01653   0.00639   0.0301   0.0243   0.8172 136.1975 258.8698
  11.915   1.0563   0.01668   0.00650   0.0302   0.0239   0.8178 136.3005 258.9494
  12.000   1.0647   0.01683   0.00661   0.0303   0.0236   0.8184 136.4031 259.0228
