  
       XFOIL         Version 6.99
  
 Calculated polar for: Repaneled_Airfoil                               
  
 1 1 Reynolds number fixed          Mach number fixed         
  
 xtrf =   1.000 (top)        1.000 (bottom)  
 Mach =   0.000     Re =     1.000 e 6     Ncrit =   9.000  9.000
  
   alpha    CL        CD       CDp       CM     Top_Xtr  Bot_Xtr  Top_Itr  Bot_Itr
  ------ -------- --------- --------- -------- -------- -------- -------- --------
  -5.000  -0.5093   0.00899   0.00152  -0.0219   0.7531   0.1680  50.6806 191.3773
  -4.915  -0.4998   0.00897   0.00152  -0.0218   0.7512   0.1700  50.8924 191.6311
  -4.829  -0.4901   0.00896   0.00151  -0.0219   0.7493   0.1720  51.1010 191.8755
  -4.744  -0.4805   0.00893   0.00150  -0.0219   0.7472   0.1737  51.3324 192.0988
  -4.658  -0.4710   0.00889   0.00149  -0.0219   0.7451   0.1756  51.5583 192.3315
  -4.573  -0.4614   0.00887   0.00149  -0.0219   0.7432   0.1775  51.7727 192.5757
  -4.487  -0.4518   0.00887   0.00148  -0.0219   0.7414   0.1794  51.9709 192.8109
  -4.402  -0.4421   0.00886   0.00147  -0.0219   0.7392   0.1810  52.2020 193.0118
  -4.317  -0.4326   0.00881   0.00146  -0.0219   0.7370   0.1826  52.4432 193.2059
  -4.231  -0.4231   0.00878   0.00145  -0.0219   0.7349   0.1841  52.6748 193.3916
  -4.146  -0.4135   0.00876   0.00144  -0.0219   0.7329   0.1856  52.8870 193.5685
  -4.060  -0.4039   0.00874   0.00143  -0.0219   0.7309   0.1869  53.1023 193.7350
  -3.975  -0.3941   0.00873   0.00142  -0.0219   0.7286   0.1883  53.3462 193.9033
  -3.889  -0.3845   0.00870   0.00140  -0.0219   0.7265   0.1897  53.5785 194.0718
  -3.804  -0.3750   0.00866   0.00139  -0.0219   0.7245   0.1912  53.7879 194.2511
  -3.719  -0.3655   0.00864   0.00138  -0.0219   0.7228   0.1926  53.9718 194.4269
  -3.633  -0.3558   0.00862   0.00137  -0.0219   0.7208   0.1940  54.1899 194.6010
  -3.548  -0.3461   0.00860   0.00136  -0.0219   0.7187   0.1955  54.4112 194.7748
  -3.462  -0.3363   0.00859   0.00135  -0.0219   0.7167   0.1968  54.6230 194.9354
  -3.377  -0.3268   0.00856   0.00134  -0.0219   0.7148   0.1982  54.8191 195.1029
  -3.206  -0.3076   0.00849   0.00131  -0.0219   0.7109   0.2012  55.2344 195.4600
  -3.121  -0.2979   0.00847   0.00130  -0.0219   0.7086   0.2027  55.4725 195.6411
  -3.035  -0.2882   0.00846   0.00129  -0.0219   0.7065   0.2042  55.7005 195.8168
  -2.950  -0.2785   0.00845   0.00128  -0.0220   0.7045   0.2055  55.9100 195.9677
  -2.864  -0.2690   0.00841   0.00126  -0.0219   0.7023   0.2068  56.1369 196.1265
  -2.779  -0.2594   0.00837   0.00124  -0.0219   0.6998   0.2082  56.3944 196.2839
  -2.693  -0.2498   0.00834   0.00123  -0.0219   0.6975   0.2096  56.6386 196.4483
  -2.608  -0.2401   0.00832   0.00121  -0.0219   0.6954   0.2110  56.8586 196.6171
  -2.523  -0.2305   0.00831   0.00120  -0.0219   0.6934   0.2125  57.0688 196.7842
  -2.437  -0.2207   0.00829   0.00119  -0.0220   0.6910   0.2137  57.3159 196.9364
  -2.352  -0.2110   0.00825   0.00117  -0.0220   0.6887   0.2150  57.5501 197.0820
  -2.266  -0.2015   0.00821   0.00115  -0.0220   0.6866   0.2162  57.7658 197.2259
  -2.181  -0.1920   0.00819   0.00113  -0.0219   0.6847   0.2174  57.9608 197.3576
  -2.095  -0.1823   0.00816   0.00111  -0.0220   0.6824   0.2185  58.1964 197.4886
  -2.010  -0.1726   0.00813   0.00110  -0.0220   0.6800   0.2197  58.4453 197.6212
  -1.925  -0.1629   0.00811   0.00108  -0.0220   0.6776   0.2209  58.6878 197.7571
  -1.839  -0.1532   0.00810   0.00106  -0.0220   0.6754   0.2220  58.9114 197.8920
  -1.668  -0.1339   0.00804   0.00102  -0.0220   0.6703   0.2246  59.4315 198.1842
  -1.583  -0.1243   0.00801   0.00101  -0.0220   0.6677   0.2259  59.6941 198.3399
  -1.498  -0.1147   0.00799   0.00099  -0.0220   0.6654   0.2273  59.9315 198.4974
  -1.412  -0.1050   0.00796   0.00097  -0.0220   0.6628   0.2287  60.1918 198.6549
  -1.327  -0.0953   0.00794   0.00096  -0.0220   0.6601   0.2301  60.4639 198.8098
  -1.241  -0.0856   0.00793   0.00094  -0.0220   0.6576   0.2313  60.7169 198.9550
  -1.156  -0.0760   0.00791   0.00092  -0.0220   0.6554   0.2327  60.9401 199.1082
  -1.070  -0.0664   0.00788   0.00091  -0.0220   0.6530   0.2342  61.1810 199.2722
  -0.985  -0.0567   0.00785   0.00090  -0.0220   0.6504   0.2357  61.4392 199.4496
  -0.899  -0.0470   0.00783   0.00088  -0.0220   0.6479   0.2374  61.6876 199.6391
  -0.814  -0.0374   0.00782   0.00087  -0.0220   0.6456   0.2392  61.9173 199.8328
  -0.643  -0.0180   0.00777   0.00084  -0.0220   0.6404   0.2427  62.4373 200.2338
  -0.558  -0.0084   0.00775   0.00083  -0.0220   0.6378   0.2448  62.7027 200.4657
  -0.472   0.0012   0.00773   0.00081  -0.0220   0.6352   0.2471  62.9545 200.7158
  -0.387   0.0110   0.00772   0.00080  -0.0220   0.6323   0.2494  63.2495 200.9698
  -0.301   0.0206   0.00769   0.00079  -0.0220   0.6290   0.2519  63.5763 201.2429
  -0.216   0.0301   0.00767   0.00077  -0.0220   0.6257   0.2546  63.8972 201.5462
  -0.131   0.0398   0.00765   0.00076  -0.0220   0.6221   0.2576  64.2566 201.8682
  -0.045   0.0494   0.00763   0.00075  -0.0219   0.6181   0.2606  64.6456 202.1952
   0.126   0.0686   0.00759   0.00072  -0.0219   0.6108   0.2679  65.3672 202.9914
   0.211   0.0781   0.00757   0.00071  -0.0219   0.6072   0.2722  65.7196 203.4533
   0.296   0.0876   0.00755   0.00070  -0.0219   0.6041   0.2772  66.0231 203.9901
   0.382   0.0973   0.00752   0.00069  -0.0219   0.6006   0.2830  66.3595 204.6005
   0.467   0.1068   0.00749   0.00068  -0.0219   0.5972   0.2895  66.6910 205.2910
   0.724   0.1353   0.00738   0.00065  -0.0218   0.5865   0.3173  67.7314 208.1696
   0.809   0.1446   0.00734   0.00064  -0.0218   0.5830   0.3302  68.0707 209.4902
   0.894   0.1541   0.00729   0.00063  -0.0218   0.5792   0.3456  68.4437 211.0435
   0.980   0.1634   0.00723   0.00062  -0.0217   0.5755   0.3636  68.7929 212.8377
   1.065   0.1726   0.00716   0.00061  -0.0217   0.5724   0.3846  69.1019 214.9061
   1.151   0.1819   0.00707   0.00060  -0.0217   0.5687   0.4091  69.4495 217.2978
   1.236   0.1910   0.00698   0.00059  -0.0216   0.5651   0.4379  69.8053 220.0842
   1.322   0.1999   0.00686   0.00058  -0.0215   0.5614   0.4722  70.1622 223.3703
   1.407   0.2087   0.00672   0.00057  -0.0214   0.5571   0.5145  70.5722 227.4165
   1.492   0.2171   0.00653   0.00054  -0.0213   0.5531   0.5693  70.9594 232.6635
   1.578   0.2243   0.00614   0.00048  -0.0210   0.5490   0.6686  71.3463 242.4525
   1.663   0.2297   0.00579   0.00059  -0.0200   0.5451   0.8050  71.7216 257.3489
   1.749   0.2390   0.00581   0.00062  -0.0199   0.5412   0.8198  72.1019 259.1501
   1.834   0.2484   0.00583   0.00064  -0.0198   0.5369   0.8292  72.5122 260.3370
   1.920   0.2579   0.00586   0.00066  -0.0197   0.5329   0.8364  72.8943 261.2614
   2.005   0.2675   0.00588   0.00067  -0.0196   0.5288   0.8425  73.2827 262.0489
   2.091   0.2769   0.00591   0.00069  -0.0195   0.5244   0.8477  73.7056 262.7313
   2.176   0.2864   0.00594   0.00071  -0.0195   0.5201   0.8522  74.1164 263.3429
   2.261   0.2960   0.00597   0.00072  -0.0194   0.5150   0.8568  74.6055 263.9610
   2.347   0.3053   0.00600   0.00074  -0.0193   0.5099   0.8605  75.0919 264.4643
   2.432   0.3149   0.00604   0.00075  -0.0192   0.5042   0.8644  75.6387 265.0107
   2.518   0.3242   0.00608   0.00076  -0.0191   0.4989   0.8675  76.1419 265.4373
   2.603   0.3338   0.00611   0.00078  -0.0191   0.4934   0.8709  76.6685 265.9140
   2.688   0.3431   0.00615   0.00079  -0.0190   0.4883   0.8734  77.1593 266.2858
   2.774   0.3525   0.00619   0.00081  -0.0189   0.4824   0.8762  77.7244 266.6821
   2.859   0.3620   0.00623   0.00082  -0.0188   0.4766   0.8788  78.2797 267.0583
   2.945   0.3713   0.00628   0.00084  -0.0187   0.4702   0.8808  78.8905 267.3584
   3.030   0.3807   0.00632   0.00085  -0.0186   0.4634   0.8831  79.5430 267.6970
   3.116   0.3902   0.00637   0.00086  -0.0186   0.4561   0.8854  80.2403 268.0312
   3.201   0.3993   0.00643   0.00088  -0.0184   0.4480   0.8871  81.0128 268.2930
   3.286   0.4085   0.00649   0.00090  -0.0183   0.4391   0.8891  81.8752 268.5917
   3.372   0.4179   0.00655   0.00091  -0.0182   0.4294   0.8911  82.8105 268.9073
   3.457   0.4269   0.00662   0.00093  -0.0181   0.4189   0.8928  83.8201 269.1622
   3.543   0.4359   0.00670   0.00095  -0.0179   0.4074   0.8944  84.9389 269.4190
   3.628   0.4449   0.00679   0.00098  -0.0178   0.3940   0.8963  86.2467 269.6993
   3.714   0.4539   0.00690   0.00100  -0.0177   0.3787   0.8981  87.7433 269.9932
   3.799   0.4624   0.00702   0.00104  -0.0175   0.3604   0.8995  89.5582 270.2100
   3.884   0.4707   0.00718   0.00108  -0.0172   0.3371   0.9010  91.8877 270.4535
   3.970   0.4786   0.00740   0.00115  -0.0170   0.3067   0.9027  95.0032 270.7231
   4.055   0.4857   0.00772   0.00125  -0.0166   0.2615   0.9045  99.7904 271.0107
   4.141   0.4886   0.00852   0.00157  -0.0157   0.1535   0.9059 112.6138 271.2352
   4.226   0.4967   0.00870   0.00166  -0.0154   0.1387   0.9074 114.6042 271.4919
   4.312   0.5055   0.00881   0.00171  -0.0153   0.1310   0.9091 115.6843 271.7759
   4.397   0.5145   0.00891   0.00176  -0.0151   0.1254   0.9108 116.4845 272.0516
   4.482   0.5232   0.00899   0.00181  -0.0149   0.1207   0.9121 117.1608 272.2783
   4.568   0.5320   0.00907   0.00185  -0.0147   0.1164   0.9136 117.7999 272.5314
   4.653   0.5411   0.00914   0.00189  -0.0146   0.1125   0.9153 118.3841 272.8078
   4.824   0.5590   0.00929   0.00196  -0.0143   0.1055   0.9180 119.4682 273.2807
   4.910   0.5678   0.00936   0.00200  -0.0141   0.1023   0.9194 119.9564 273.5284
   4.995   0.5769   0.00942   0.00203  -0.0140   0.0994   0.9211 120.4186 273.8255
   5.080   0.5857   0.00950   0.00207  -0.0138   0.0965   0.9227 120.8816 274.1160
   5.166   0.5944   0.00955   0.00210  -0.0136   0.0940   0.9243 121.3019 274.4019
   5.251   0.6031   0.00962   0.00213  -0.0134   0.0913   0.9262 121.7456 274.7481
   5.337   0.6119   0.00969   0.00217  -0.0132   0.0889   0.9281 122.1446 275.0909
   5.422   0.6204   0.00975   0.00220  -0.0129   0.0865   0.9298 122.5443 275.3998
   5.508   0.6289   0.00983   0.00224  -0.0127   0.0842   0.9316 122.9291 275.7500
   5.593   0.6378   0.00989   0.00227  -0.0125   0.0822   0.9334 123.2896 276.0764
   5.678   0.6463   0.00995   0.00231  -0.0122   0.0800   0.9347 123.6680 276.3375
   5.764   0.6548   0.01003   0.00235  -0.0120   0.0779   0.9361 124.0323 276.6139
   5.849   0.6639   0.01009   0.00238  -0.0119   0.0758   0.9375 124.4098 276.8919
   5.935   0.6726   0.01016   0.00241  -0.0117   0.0737   0.9387 124.7988 277.1180
   6.020   0.6813   0.01023   0.00244  -0.0115   0.0718   0.9397 125.1550 277.3157
   6.106   0.6901   0.01029   0.00248  -0.0113   0.0698   0.9407 125.5290 277.5271
   6.191   0.6989   0.01037   0.00251  -0.0112   0.0678   0.9418 125.8917 277.7506
   6.276   0.7080   0.01044   0.00255  -0.0111   0.0661   0.9429 126.2299 277.9707
   6.362   0.7167   0.01051   0.00258  -0.0109   0.0642   0.9438 126.5880 278.1550
   6.447   0.7251   0.01059   0.00262  -0.0107   0.0625   0.9448 126.9275 278.3692
   6.533   0.7338   0.01065   0.00266  -0.0105   0.0609   0.9460 127.2391 278.6176
   6.618   0.7426   0.01073   0.00269  -0.0103   0.0593   0.9473 127.5708 278.8973
   6.704   0.7510   0.01081   0.00273  -0.0101   0.0577   0.9485 127.8821 279.1453
   6.789   0.7593   0.01088   0.00277  -0.0098   0.0564   0.9497 128.1635 279.4033
   6.874   0.7679   0.01095   0.00281  -0.0096   0.0550   0.9510 128.4589 279.7031
   6.960   0.7764   0.01104   0.00285  -0.0094   0.0536   0.9525 128.7471 280.0194
   7.045   0.7843   0.01113   0.00290  -0.0091   0.0523   0.9536 129.0157 280.2840
   7.131   0.7928   0.01119   0.00294  -0.0088   0.0512   0.9549 129.2650 280.5827
   7.216   0.8013   0.01127   0.00298  -0.0086   0.0499   0.9564 129.5365 280.9140
   7.301   0.8094   0.01135   0.00302  -0.0083   0.0488   0.9576 129.7891 281.2023
   7.387   0.8174   0.01145   0.00308  -0.0080   0.0477   0.9588 130.0290 281.4950
   7.472   0.8261   0.01152   0.00312  -0.0078   0.0467   0.9600 130.2568 281.7812
   7.558   0.8347   0.01160   0.00316  -0.0076   0.0456   0.9611 130.5010 282.0498
   7.643   0.8429   0.01169   0.00321  -0.0074   0.0446   0.9620 130.7308 282.2828
   7.729   0.8510   0.01180   0.00326  -0.0071   0.0436   0.9630 130.9609 282.5429
   7.814   0.8597   0.01188   0.00331  -0.0070   0.0428   0.9641 131.1631 282.7988
   7.899   0.8683   0.01196   0.00336  -0.0068   0.0419   0.9651 131.3792 283.0552
   7.985   0.8766   0.01205   0.00341  -0.0066   0.0410   0.9660 131.5950 283.2920
   8.070   0.8848   0.01216   0.00347  -0.0063   0.0401   0.9670 131.8077 283.5766
   8.156   0.8929   0.01229   0.00354  -0.0061   0.0392   0.9683 132.0274 283.9048
   8.241   0.9014   0.01236   0.00358  -0.0059   0.0384   0.9693 132.2163 284.1871
   8.327   0.9099   0.01243   0.00363  -0.0057   0.0376   0.9704 132.4271 284.4930
   8.412   0.9183   0.01253   0.00368  -0.0055   0.0367   0.9717 132.6368 284.8589
   8.498   0.9264   0.01264   0.00374  -0.0053   0.0360   0.9729 132.8343 285.2214
   8.583   0.9344   0.01277   0.00381  -0.0050   0.0352   0.9742 133.0280 285.6232
   8.668   0.9430   0.01285   0.00386  -0.0048   0.0346   0.9757 133.1908 286.0524
   8.754   0.9517   0.01294   0.00391  -0.0047   0.0339   0.9769 133.3672 286.4386
   8.839   0.9603   0.01304   0.00397  -0.0046   0.0333   0.9784 133.5449 286.9241
   8.925   0.9690   0.01315   0.00403  -0.0044   0.0326   0.9797 133.7199 287.3679
   9.010   0.9774   0.01329   0.00411  -0.0043   0.0319   0.9813 133.9018 287.9186
   9.095   0.9863   0.01343   0.00419  -0.0043   0.0313   0.9827 134.0691 288.4070
   9.181   0.9956   0.01353   0.00426  -0.0043   0.0308   0.9842 134.2207 288.9658
   9.266   1.0052   0.01364   0.00433  -0.0044   0.0302   0.9854 134.3822 289.4571
   9.352   1.0146   0.01376   0.00440  -0.0045   0.0296   0.9869 134.5429 290.0576
   9.437   1.0242   0.01390   0.00448  -0.0046   0.0291   0.9882 134.7002 290.6306
   9.523   1.0336   0.01406   0.00458  -0.0047   0.0285   0.9897 134.8598 291.3179
   9.608   1.0428   0.01426   0.00470  -0.0048   0.0279   0.9913 135.0225 292.1122
   9.694   1.0529   0.01437   0.00478  -0.0050   0.0275   0.9928 135.1416 292.8745
   9.779   1.0630   0.01449   0.00486  -0.0052   0.0271   0.9942 135.2793 293.7693
   9.864   1.0730   0.01462   0.00494  -0.0054   0.0266   0.9959 135.4206 294.9099
   9.950   1.0830   0.01475   0.00503  -0.0057   0.0261   0.9978 135.5576 296.5387
  10.035   1.0926   0.01490   0.00511  -0.0058   0.0257   1.0000 135.6889 301.0000
  10.121   1.1002   0.01505   0.00520  -0.0056   0.0253   1.0000 135.8044 301.0000
  10.206   1.1076   0.01524   0.00531  -0.0053   0.0249   1.0000 135.9262 301.0000
  10.291   1.1152   0.01543   0.00542  -0.0051   0.0245   1.0000 136.0357 301.0000
  10.377   1.1235   0.01555   0.00550  -0.0050   0.0242   1.0000 136.1260 301.0000
  10.462   1.1317   0.01568   0.00559  -0.0048   0.0239   1.0000 136.2261 301.0000
  10.548   1.1398   0.01582   0.00567  -0.0047   0.0236   1.0000 136.3292 301.0000
  10.633   1.1479   0.01596   0.00576  -0.0045   0.0233   1.0000 136.4314 301.0000
  10.719   1.1560   0.01611   0.00585  -0.0044   0.0230   1.0000 136.5306 301.0000
  10.804   1.1638   0.01627   0.00595  -0.0042   0.0227   1.0000 136.6278 301.0000
  10.889   1.1715   0.01644   0.00605  -0.0040   0.0224   1.0000 136.7228 301.0000
  10.975   1.1789   0.01663   0.00616  -0.0038   0.0221   1.0000 136.8197 301.0000
  11.060   1.1858   0.01686   0.00630  -0.0034   0.0217   1.0000 136.9240 301.0000
  11.146   1.1925   0.01710   0.00645  -0.0031   0.0214   1.0000 137.0182 301.0000
  11.231   1.2004   0.01724   0.00654  -0.0029   0.0213   1.0000 137.0819 301.0000
  11.317   1.2080   0.01739   0.00664  -0.0027   0.0210   1.0000 137.1546 301.0000
  11.402   1.2155   0.01755   0.00675  -0.0024   0.0208   1.0000 137.2331 301.0000
  11.487   1.2229   0.01772   0.00685  -0.0022   0.0206   1.0000 137.3142 301.0000
  11.573   1.2302   0.01789   0.00696  -0.0019   0.0203   1.0000 137.3959 301.0000
  11.658   1.2374   0.01806   0.00707  -0.0016   0.0201   1.0000 137.4760 301.0000
  11.744   1.2445   0.01824   0.00718  -0.0013   0.0199   1.0000 137.5539 301.0000
  11.829   1.2514   0.01843   0.00730  -0.0010   0.0196   1.0000 137.6307 301.0000
  11.915   1.2581   0.01863   0.00742  -0.0007   0.0194   1.0000 137.7065 301.0000
  12.000   1.2644   0.01885   0.00755  -0.0003   0.0192   1.0000 137.7826 301.0000
