  
       XFOIL         Version 6.99
  
 Calculated polar for: Repaneled_Airfoil                               
  
 1 1 Reynolds number fixed          Mach number fixed         
  
 xtrf =   1.000 (top)        1.000 (bottom)  
 Mach =   0.000     Re =     1.000 e 6     Ncrit =   9.000  9.000
  
   alpha    CL        CD       CDp       CM     Top_Xtr  Bot_Xtr  Top_Itr  Bot_Itr
  ------ -------- --------- --------- -------- -------- -------- -------- --------
  -5.000  -0.2369   0.01068   0.00262  -0.0203   0.7218   0.0559  53.9265 173.6358
  -4.915  -0.2272   0.01063   0.00259  -0.0203   0.7214   0.0578  53.9636 174.0502
  -4.829  -0.2174   0.01056   0.00255  -0.0203   0.7210   0.0599  54.0020 174.4707
  -4.744  -0.2073   0.01053   0.00256  -0.0204   0.7204   0.0620  54.0678 174.8828
  -4.658  -0.1972   0.01047   0.00255  -0.0205   0.7198   0.0638  54.1348 175.2366
  -4.573  -0.1872   0.01041   0.00254  -0.0206   0.7192   0.0656  54.1992 175.5825
  -4.487  -0.1772   0.01037   0.00252  -0.0207   0.7186   0.0672  54.2601 175.8970
  -4.402  -0.1672   0.01031   0.00250  -0.0207   0.7181   0.0688  54.3159 176.2032
  -4.317  -0.1572   0.01025   0.00248  -0.0208   0.7176   0.0705  54.3675 176.5269
  -4.231  -0.1472   0.01020   0.00246  -0.0209   0.7171   0.0723  54.4166 176.8669
  -4.146  -0.1372   0.01015   0.00243  -0.0209   0.7167   0.0741  54.4631 177.1961
  -4.060  -0.1272   0.01009   0.00241  -0.0210   0.7163   0.0761  54.5063 177.5581
  -3.975  -0.1173   0.01005   0.00239  -0.0210   0.7159   0.0781  54.5468 177.9246
  -3.889  -0.1073   0.01000   0.00237  -0.0211   0.7155   0.0802  54.5869 178.2803
  -3.804  -0.0973   0.00994   0.00235  -0.0211   0.7151   0.0824  54.6269 178.6693
  -3.719  -0.0874   0.00990   0.00232  -0.0212   0.7147   0.0845  54.6667 179.0365
  -3.633  -0.0774   0.00984   0.00230  -0.0212   0.7144   0.0867  54.7061 179.4161
  -3.548  -0.0675   0.00979   0.00227  -0.0212   0.7140   0.0890  54.7446 179.8116
  -3.462  -0.0576   0.00974   0.00224  -0.0213   0.7136   0.0913  54.7820 180.1873
  -3.377  -0.0476   0.00968   0.00222  -0.0213   0.7133   0.0938  54.8177 180.6071
  -3.206  -0.0278   0.00959   0.00217  -0.0214   0.7127   0.0988  54.8839 181.4175
  -3.121  -0.0179   0.00955   0.00214  -0.0214   0.7124   0.1014  54.9164 181.8306
  -3.035  -0.0080   0.00951   0.00211  -0.0214   0.7120   0.1038  54.9499 182.2038
  -2.950   0.0019   0.00947   0.00209  -0.0215   0.7117   0.1063  54.9864 182.5982
  -2.864   0.0120   0.00944   0.00208  -0.0216   0.7111   0.1088  55.0445 182.9937
  -2.779   0.0222   0.00940   0.00209  -0.0217   0.7104   0.1115  55.1170 183.4014
  -2.693   0.0323   0.00937   0.00209  -0.0218   0.7097   0.1144  55.1922 183.8342
  -2.608   0.0424   0.00932   0.00208  -0.0219   0.7090   0.1170  55.2679 184.2318
  -2.523   0.0525   0.00928   0.00207  -0.0220   0.7083   0.1199  55.3424 184.6617
  -2.437   0.0625   0.00924   0.00205  -0.0220   0.7076   0.1227  55.4142 185.0637
  -2.352   0.0726   0.00919   0.00203  -0.0221   0.7070   0.1255  55.4814 185.4713
  -2.266   0.0825   0.00915   0.00201  -0.0222   0.7063   0.1284  55.5443 185.8912
  -2.181   0.0925   0.00910   0.00199  -0.0222   0.7058   0.1312  55.6037 186.2920
  -2.095   0.1025   0.00906   0.00197  -0.0223   0.7053   0.1344  55.6589 186.7373
  -2.010   0.1124   0.00902   0.00194  -0.0223   0.7048   0.1373  55.7099 187.1482
  -1.925   0.1224   0.00897   0.00192  -0.0224   0.7043   0.1405  55.7597 187.5843
  -1.754   0.1422   0.00888   0.00186  -0.0224   0.7033   0.1466  55.8585 188.4265
  -1.668   0.1520   0.00884   0.00183  -0.0224   0.7029   0.1499  55.9077 188.8700
  -1.583   0.1619   0.00880   0.00180  -0.0225   0.7024   0.1530  55.9578 189.2821
  -1.498   0.1718   0.00877   0.00177  -0.0225   0.7018   0.1564  56.0154 189.7300
  -1.412   0.1820   0.00874   0.00178  -0.0226   0.7010   0.1596  56.1014 190.1474
  -1.327   0.1921   0.00870   0.00178  -0.0228   0.7002   0.1630  56.1862 190.5940
  -1.156   0.2122   0.00863   0.00177  -0.0229   0.6986   0.1700  56.3488 191.4909
  -1.070   0.2222   0.00860   0.00176  -0.0230   0.6979   0.1738  56.4260 191.9795
  -0.985   0.2321   0.00856   0.00174  -0.0231   0.6971   0.1778  56.5022 192.4801
  -0.814   0.2520   0.00846   0.00168  -0.0232   0.6957   0.1865  56.6510 193.5528
  -0.729   0.2618   0.00841   0.00165  -0.0232   0.6950   0.1910  56.7206 194.1097
  -0.643   0.2717   0.00836   0.00162  -0.0232   0.6944   0.1961  56.7859 194.7295
  -0.558   0.2815   0.00830   0.00159  -0.0233   0.6938   0.2014  56.8461 195.3666
  -0.472   0.2913   0.00825   0.00155  -0.0233   0.6932   0.2078  56.9024 196.1280
  -0.387   0.3010   0.00818   0.00151  -0.0233   0.6927   0.2164  56.9570 197.1333
  -0.301   0.3106   0.00810   0.00148  -0.0233   0.6921   0.2306  57.0211 198.7615
  -0.216   0.3192   0.00785   0.00149  -0.0232   0.6912   0.3021  57.1147 206.5136
  -0.131   0.3279   0.00774   0.00151  -0.0231   0.6902   0.3458  57.2131 210.9850
  -0.045   0.3371   0.00769   0.00153  -0.0230   0.6893   0.3663  57.3122 213.0286
   0.040   0.3465   0.00765   0.00153  -0.0230   0.6883   0.3800  57.4085 214.3871
   0.126   0.3559   0.00761   0.00153  -0.0229   0.6874   0.3904  57.5003 215.4060
   0.211   0.3654   0.00759   0.00152  -0.0229   0.6866   0.3984  57.5866 216.1958
   0.296   0.3749   0.00756   0.00150  -0.0228   0.6858   0.4052  57.6712 216.8571
   0.382   0.3843   0.00753   0.00148  -0.0228   0.6849   0.4111  57.7567 217.4303
   0.467   0.3939   0.00750   0.00146  -0.0228   0.6841   0.4169  57.8424 217.9911
   0.553   0.4033   0.00747   0.00143  -0.0227   0.6833   0.4218  57.9278 218.4671
   0.638   0.4128   0.00746   0.00141  -0.0226   0.6823   0.4265  58.0212 218.9304
   0.724   0.4225   0.00744   0.00142  -0.0227   0.6810   0.4307  58.1603 219.3271
   0.809   0.4322   0.00743   0.00142  -0.0227   0.6796   0.4350  58.2998 219.7467
   0.894   0.4419   0.00742   0.00142  -0.0227   0.6783   0.4390  58.4328 220.1358
   0.980   0.4515   0.00740   0.00141  -0.0227   0.6770   0.4429  58.5606 220.5095
   1.065   0.4611   0.00738   0.00139  -0.0227   0.6758   0.4465  58.6846 220.8600
   1.151   0.4707   0.00736   0.00136  -0.0227   0.6747   0.4495  58.8027 221.1423
   1.236   0.4801   0.00734   0.00133  -0.0226   0.6735   0.4524  58.9166 221.4196
   1.322   0.4897   0.00732   0.00131  -0.0226   0.6723   0.4554  59.0438 221.7151
   1.492   0.5092   0.00731   0.00132  -0.0227   0.6686   0.4612  59.4132 222.2712
   1.578   0.5189   0.00729   0.00130  -0.0227   0.6667   0.4641  59.6032 222.5501
   1.663   0.5285   0.00728   0.00128  -0.0228   0.6649   0.4672  59.7874 222.8430
   1.749   0.5380   0.00726   0.00124  -0.0227   0.6632   0.4700  59.9621 223.1105
   1.834   0.5477   0.00725   0.00123  -0.0227   0.6609   0.4727  60.1952 223.3720
   1.920   0.5574   0.00724   0.00123  -0.0228   0.6583   0.4755  60.4485 223.6346
   2.005   0.5671   0.00723   0.00120  -0.0228   0.6559   0.4781  60.6924 223.8899
   2.091   0.5766   0.00722   0.00116  -0.0228   0.6537   0.4804  60.9171 224.1111
   2.176   0.5862   0.00721   0.00115  -0.0228   0.6509   0.4828  61.1872 224.3360
   2.261   0.5958   0.00721   0.00115  -0.0228   0.6478   0.4854  61.5036 224.5886
   2.347   0.6055   0.00721   0.00112  -0.0229   0.6446   0.4883  61.8198 224.8607
   2.432   0.6151   0.00721   0.00110  -0.0229   0.6413   0.4909  62.1515 225.1095
   2.518   0.6247   0.00721   0.00110  -0.0229   0.6369   0.4934  62.5809 225.3501
   2.603   0.6342   0.00721   0.00107  -0.0229   0.6325   0.4960  63.0135 225.5982
   2.688   0.6439   0.00723   0.00106  -0.0230   0.6274   0.4986  63.5193 225.8484
   2.774   0.6535   0.00725   0.00102  -0.0230   0.6219   0.5009  64.0563 226.0705
   2.859   0.6630   0.00727   0.00101  -0.0230   0.6147   0.5032  64.7610 226.2862
   2.945   0.6725   0.00730   0.00100  -0.0231   0.6057   0.5056  65.6468 226.5211
   3.030   0.6820   0.00738   0.00097  -0.0232   0.5936   0.5083  66.8248 226.7805
   3.116   0.6916   0.00751   0.00097  -0.0233   0.5757   0.5111  68.5463 227.0450
   3.201   0.7008   0.00777   0.00100  -0.0236   0.5451   0.5137  71.4898 227.2937
   3.286   0.7100   0.00839   0.00118  -0.0243   0.4898   0.5166  76.7674 227.5674
   3.372   0.7190   0.00925   0.00149  -0.0254   0.4261   0.5194  82.8768 227.8420
   3.457   0.7280   0.00982   0.00173  -0.0262   0.3895   0.5220  86.4300 228.0865
   3.543   0.7369   0.01018   0.00190  -0.0267   0.3694   0.5244  88.4032 228.3198
   3.628   0.7459   0.01045   0.00202  -0.0270   0.3562   0.5271  89.7198 228.5735
   3.714   0.7550   0.01067   0.00212  -0.0273   0.3470   0.5299  90.6384 228.8428
   3.799   0.7640   0.01085   0.00220  -0.0275   0.3400   0.5326  91.3387 229.1057
   3.884   0.7727   0.01102   0.00228  -0.0277   0.3341   0.5356  91.9300 229.3864
   3.970   0.7816   0.01116   0.00235  -0.0278   0.3296   0.5389  92.3926 229.7118
   4.055   0.7905   0.01131   0.00242  -0.0280   0.3255   0.5425  92.8042 230.0478
   4.141   0.7991   0.01144   0.00248  -0.0281   0.3222   0.5459  93.1435 230.3758
   4.226   0.8078   0.01155   0.00254  -0.0282   0.3189   0.5498  93.4804 230.7511
   4.312   0.8164   0.01170   0.00261  -0.0282   0.3157   0.5536  93.8150 231.1203
   4.397   0.8248   0.01183   0.00267  -0.0283   0.3126   0.5577  94.1252 231.5091
   4.482   0.8334   0.01194   0.00272  -0.0283   0.3095   0.5621  94.4507 231.9372
   4.568   0.8415   0.01207   0.00279  -0.0284   0.3064   0.5664  94.7729 232.3530
   4.653   0.8497   0.01222   0.00286  -0.0284   0.3035   0.5712  95.0676 232.8171
   4.739   0.8580   0.01231   0.00290  -0.0284   0.3009   0.5759  95.3444 233.2654
   4.824   0.8661   0.01243   0.00296  -0.0284   0.2982   0.5808  95.6206 233.7396
   4.910   0.8739   0.01257   0.00303  -0.0284   0.2956   0.5857  95.8909 234.2131
   4.995   0.8818   0.01268   0.00308  -0.0283   0.2931   0.5912  96.1496 234.7533
   5.080   0.8898   0.01278   0.00312  -0.0282   0.2905   0.5976  96.4301 235.3702
   5.166   0.8973   0.01290   0.00318  -0.0281   0.2877   0.6052  96.7175 236.1168
   5.337   0.9114   0.01310   0.00329  -0.0278   0.2830   0.6288  97.2228 238.4334
   5.422   0.9157   0.01304   0.00330  -0.0270   0.2811   0.6750  97.4254 243.0595
   5.508   0.9079   0.01260   0.00332  -0.0235   0.2803   0.9033  97.5045 270.7318
   5.593   0.9149   0.01274   0.00341  -0.0232   0.2782   0.9128  97.7298 272.3066
   5.678   0.9218   0.01292   0.00350  -0.0230   0.2762   0.9186  97.9423 273.3049
   5.764   0.9294   0.01304   0.00357  -0.0228   0.2743   0.9231  98.1402 274.0951
   5.849   0.9370   0.01316   0.00363  -0.0227   0.2724   0.9265  98.3496 274.7254
   5.935   0.9444   0.01330   0.00369  -0.0225   0.2704   0.9293  98.5611 275.2394
   6.020   0.9514   0.01346   0.00376  -0.0223   0.2685   0.9319  98.7682 275.7221
   6.106   0.9580   0.01364   0.00384  -0.0220   0.2666   0.9341  98.9683 276.1465
   6.191   0.9655   0.01375   0.00390  -0.0218   0.2649   0.9361  99.1565 276.5279
   6.276   0.9723   0.01387   0.00394  -0.0215   0.2631   0.9381  99.3489 276.9282
   6.362   0.9785   0.01401   0.00400  -0.0211   0.2614   0.9397  99.5335 277.2388
   6.447   0.9842   0.01416   0.00406  -0.0206   0.2598   0.9413  99.7076 277.5671
   6.533   0.9899   0.01432   0.00412  -0.0202   0.2582   0.9430  99.8849 277.9184
   6.618   0.9962   0.01447   0.00419  -0.0198   0.2565   0.9443 100.0660 278.1866
   6.704   1.0034   0.01458   0.00423  -0.0196   0.2546   0.9456 100.2793 278.4541
   6.789   1.0102   0.01471   0.00428  -0.0193   0.2524   0.9469 100.5192 278.7450
   6.874   1.0166   0.01486   0.00434  -0.0189   0.2501   0.9483 100.7654 279.0349
   7.045   1.0296   0.01516   0.00446  -0.0182   0.2458   0.9505 101.2454 279.5118
   7.131   1.0363   0.01530   0.00451  -0.0179   0.2434   0.9517 101.5169 279.7796
   7.216   1.0426   0.01546   0.00456  -0.0176   0.2409   0.9528 101.7888 280.0355
   7.301   1.0486   0.01563   0.00463  -0.0172   0.2386   0.9537 102.0504 280.2282
   7.387   1.0556   0.01576   0.00468  -0.0170   0.2358   0.9546 102.3589 280.4414
   7.472   1.0619   0.01591   0.00473  -0.0166   0.2327   0.9557 102.7066 280.6893
   7.558   1.0677   0.01609   0.00479  -0.0162   0.2298   0.9569 103.0377 280.9644
   7.643   1.0745   0.01622   0.00483  -0.0159   0.2263   0.9577 103.4338 281.1613
   7.729   1.0804   0.01639   0.00490  -0.0155   0.2224   0.9585 103.8827 281.3707
   7.814   1.0864   0.01656   0.00495  -0.0151   0.2184   0.9595 104.3419 281.5967
   7.899   1.0919   0.01676   0.00501  -0.0147   0.2138   0.9605 104.8799 281.8416
   7.985   1.0977   0.01694   0.00507  -0.0144   0.2087   0.9614 105.4748 282.0607
   8.070   1.1027   0.01716   0.00515  -0.0139   0.2026   0.9621 106.1971 282.2468
   8.156   1.1073   0.01741   0.00523  -0.0133   0.1938   0.9630 107.2477 282.4584
   8.241   1.1109   0.01770   0.00534  -0.0127   0.1844   0.9639 108.3937 282.7021
   8.327   1.1137   0.01804   0.00546  -0.0120   0.1722   0.9650 109.9205 282.9763
   8.412   1.1155   0.01843   0.00562  -0.0112   0.1600   0.9658 111.4820 283.1810
   8.498   1.1167   0.01886   0.00581  -0.0103   0.1466   0.9666 113.2578 283.4097
   8.583   1.1181   0.01927   0.00599  -0.0094   0.1344   0.9676 114.9310 283.6675
   8.668   1.1198   0.01968   0.00616  -0.0086   0.1224   0.9686 116.6543 283.9485
   8.754   1.1218   0.02006   0.00634  -0.0078   0.1120   0.9694 118.1960 284.1624
   8.839   1.1242   0.02043   0.00650  -0.0070   0.1025   0.9702 119.6613 284.3900
   8.925   1.1270   0.02077   0.00665  -0.0063   0.0946   0.9711 120.9270 284.6442
   9.010   1.1302   0.02110   0.00679  -0.0056   0.0874   0.9721 122.1304 284.9277
   9.095   1.1336   0.02142   0.00693  -0.0050   0.0816   0.9728 123.1235 285.1465
   9.181   1.1374   0.02172   0.00706  -0.0044   0.0762   0.9735 124.0793 285.3578
   9.352   1.1457   0.02228   0.00730  -0.0033   0.0674   0.9752 125.7123 285.8482
   9.437   1.1501   0.02254   0.00741  -0.0028   0.0640   0.9759 126.3756 286.0802
   9.523   1.1545   0.02281   0.00753  -0.0023   0.0607   0.9765 127.0212 286.2737
   9.608   1.1593   0.02306   0.00764  -0.0019   0.0578   0.9772 127.6186 286.4879
   9.694   1.1638   0.02333   0.00775  -0.0014   0.0553   0.9780 128.1419 286.7319
   9.864   1.1731   0.02386   0.00798  -0.0005   0.0508   0.9793 129.0901 287.1782
   9.950   1.1783   0.02411   0.00809  -0.0001   0.0486   0.9799 129.5702 287.3753
  10.035   1.1830   0.02439   0.00822   0.0003   0.0466   0.9806 130.0207 287.6091
  10.121   1.1881   0.02463   0.00832   0.0006   0.0448   0.9814 130.4435 287.8806
  10.206   1.1929   0.02491   0.00844   0.0010   0.0430   0.9820 130.8584 288.1187
  10.291   1.1982   0.02517   0.00856   0.0013   0.0415   0.9826 131.2232 288.3279
  10.377   1.2035   0.02544   0.00868   0.0016   0.0400   0.9832 131.5825 288.5696
  10.462   1.2080   0.02573   0.00882   0.0020   0.0387   0.9840 131.9120 288.8691
  10.548   1.2135   0.02599   0.00894   0.0023   0.0374   0.9847 132.2152 289.1180
  10.633   1.2193   0.02626   0.00907   0.0025   0.0361   0.9852 132.5491 289.3270
  10.719   1.2246   0.02656   0.00921   0.0027   0.0349   0.9858 132.8624 289.5660
  10.804   1.2299   0.02684   0.00935   0.0030   0.0339   0.9865 133.1308 289.8487
  10.889   1.2356   0.02711   0.00947   0.0032   0.0329   0.9871 133.4035 290.0888
  10.975   1.2416   0.02740   0.00962   0.0033   0.0319   0.9875 133.6772 290.2520
  11.060   1.2471   0.02772   0.00978   0.0034   0.0309   0.9879 133.9314 290.4331
  11.146   1.2530   0.02801   0.00992   0.0035   0.0302   0.9883 134.1450 290.6335
  11.231   1.2587   0.02830   0.01006   0.0037   0.0294   0.9889 134.3573 290.8876
  11.317   1.2645   0.02861   0.01022   0.0038   0.0287   0.9893 134.5668 291.0865
  11.402   1.2703   0.02894   0.01040   0.0038   0.0280   0.9896 134.7647 291.2255
  11.487   1.2758   0.02930   0.01059   0.0039   0.0274   0.9899 134.9502 291.3785
  11.573   1.2819   0.02960   0.01074   0.0039   0.0268   0.9903 135.1025 291.5403
  11.658   1.2881   0.02990   0.01089   0.0040   0.0263   0.9907 135.2638 291.7410
  11.744   1.2939   0.03020   0.01105   0.0041   0.0257   0.9912 135.4323 292.0005
  11.829   1.3001   0.03054   0.01123   0.0040   0.0252   0.9914 135.6066 292.1159
  11.915   1.3061   0.03090   0.01143   0.0040   0.0246   0.9917 135.7722 292.2420
  12.000   1.3117   0.03129   0.01165   0.0039   0.0241   0.9919 135.9301 292.3789
