  
       XFOIL         Version 6.99
  
 Calculated polar for: Repaneled_Airfoil                               
  
 1 1 Reynolds number fixed          Mach number fixed         
  
 xtrf =   1.000 (top)        1.000 (bottom)  
 Mach =   0.000     Re =     1.000 e 6     Ncrit =   9.000  9.000
  
   alpha    CL        CD       CDp       CM     Top_Xtr  Bot_Xtr  Top_Itr  Bot_Itr
  ------ -------- --------- --------- -------- -------- -------- -------- --------
  -5.000  -1.1070   0.02097   0.00660   0.0896   0.3055   0.0206  95.2902 165.2318
  -4.915  -1.1012   0.02076   0.00649   0.0901   0.3042   0.0209  95.4204 165.3379
  -4.829  -1.0953   0.02056   0.00638   0.0905   0.3030   0.0212  95.5485 165.4472
  -4.744  -1.0893   0.02037   0.00627   0.0910   0.3019   0.0216  95.6705 165.5585
  -4.658  -1.0832   0.02019   0.00617   0.0915   0.3008   0.0219  95.7867 165.6704
  -4.573  -1.0770   0.02001   0.00607   0.0919   0.2997   0.0223  95.9004 165.7798
  -4.487  -1.0708   0.01984   0.00596   0.0924   0.2986   0.0226  96.0133 165.8828
  -4.402  -1.0645   0.01966   0.00587   0.0928   0.2977   0.0229  96.1083 165.9755
  -4.317  -1.0587   0.01946   0.00576   0.0933   0.2968   0.0232  96.2081 166.0754
  -4.231  -1.0528   0.01927   0.00566   0.0938   0.2958   0.0235  96.3106 166.1810
  -4.146  -1.0467   0.01908   0.00556   0.0943   0.2948   0.0239  96.4141 166.2875
  -4.060  -1.0405   0.01890   0.00547   0.0947   0.2939   0.0242  96.5164 166.3970
  -3.975  -1.0342   0.01873   0.00537   0.0952   0.2929   0.0246  96.6169 166.5102
  -3.889  -1.0279   0.01857   0.00528   0.0956   0.2920   0.0250  96.7146 166.6250
  -3.804  -1.0214   0.01841   0.00519   0.0960   0.2911   0.0254  96.8109 166.7375
  -3.719  -1.0149   0.01826   0.00510   0.0964   0.2902   0.0257  96.9095 166.8449
  -3.633  -1.0082   0.01812   0.00501   0.0969   0.2892   0.0260  97.0110 166.9428
  -3.548  -1.0019   0.01795   0.00493   0.0973   0.2885   0.0263  97.0889 167.0375
  -3.462  -0.9959   0.01776   0.00483   0.0978   0.2877   0.0268  97.1732 167.1550
  -3.377  -0.9897   0.01758   0.00474   0.0983   0.2869   0.0272  97.2620 167.2702
  -3.292  -0.9833   0.01742   0.00466   0.0987   0.2860   0.0276  97.3527 167.3883
  -3.206  -0.9767   0.01727   0.00458   0.0992   0.2852   0.0280  97.4435 167.5111
  -3.121  -0.9701   0.01712   0.00450   0.0996   0.2844   0.0284  97.5329 167.6372
  -3.035  -0.9634   0.01697   0.00442   0.1000   0.2835   0.0289  97.6207 167.7623
  -2.950  -0.9566   0.01683   0.00434   0.1004   0.2827   0.0293  97.7102 167.8835
  -2.864  -0.9497   0.01671   0.00426   0.1008   0.2819   0.0297  97.8011 167.9928
  -2.779  -0.9434   0.01655   0.00418   0.1012   0.2810   0.0302  97.8933 168.1261
  -2.693  -0.9367   0.01641   0.00410   0.1016   0.2800   0.0307  97.9977 168.2616
  -2.608  -0.9300   0.01626   0.00403   0.1020   0.2793   0.0312  98.0710 168.4014
  -2.523  -0.9231   0.01613   0.00397   0.1024   0.2786   0.0317  98.1569 168.5476
  -2.437  -0.9161   0.01600   0.00391   0.1028   0.2777   0.0323  98.2476 168.6997
  -2.352  -0.9090   0.01587   0.00384   0.1032   0.2769   0.0328  98.3407 168.8502
  -2.266  -0.9017   0.01576   0.00378   0.1035   0.2760   0.0333  98.4332 168.9882
  -2.181  -0.8951   0.01561   0.00371   0.1040   0.2752   0.0339  98.5201 169.1422
  -2.095  -0.8881   0.01548   0.00365   0.1043   0.2744   0.0346  98.6038 169.3114
  -2.010  -0.8809   0.01537   0.00360   0.1047   0.2737   0.0354  98.6840 169.5160
  -1.925  -0.8735   0.01527   0.00354   0.1050   0.2730   0.0363  98.7635 169.7465
  -1.839  -0.8657   0.01519   0.00350   0.1053   0.2722   0.0371  98.8451 169.9685
  -1.754  -0.8588   0.01506   0.00343   0.1057   0.2714   0.0381  98.9286 170.2085
  -1.668  -0.8515   0.01497   0.00339   0.1060   0.2706   0.0392  99.0154 170.4649
  -1.583  -0.8438   0.01488   0.00336   0.1063   0.2700   0.0403  99.0839 170.7347
  -1.498  -0.8358   0.01481   0.00333   0.1065   0.2693   0.0413  99.1612 170.9811
  -1.412  -0.8288   0.01468   0.00328   0.1069   0.2686   0.0424  99.2383 171.2388
  -1.327  -0.8212   0.01459   0.00326   0.1072   0.2679   0.0435  99.3185 171.4925
  -1.241  -0.8132   0.01451   0.00323   0.1074   0.2671   0.0446  99.3993 171.7458
  -1.156  -0.8051   0.01445   0.00319   0.1077   0.2664   0.0455  99.4805 171.9698
  -1.070  -0.7983   0.01432   0.00314   0.1081   0.2657   0.0465  99.5556 172.1901
  -0.985  -0.7910   0.01423   0.00311   0.1085   0.2650   0.0475  99.6313 172.3970
  -0.899  -0.7836   0.01415   0.00307   0.1088   0.2643   0.0483  99.7067 172.5929
  -0.814  -0.7764   0.01407   0.00303   0.1092   0.2637   0.0492  99.7814 172.7835
  -0.729  -0.7692   0.01401   0.00300   0.1096   0.2630   0.0500  99.8584 172.9541
  -0.643  -0.7632   0.01391   0.00295   0.1102   0.2623   0.0508  99.9365 173.1289
  -0.558  -0.7570   0.01383   0.00292   0.1108   0.2615   0.0516 100.0144 173.3014
  -0.472  -0.7504   0.01375   0.00290   0.1114   0.2610   0.0524 100.0733 173.4751
  -0.387  -0.7434   0.01368   0.00288   0.1118   0.2604   0.0532 100.1395 173.6551
  -0.301  -0.7362   0.01361   0.00286   0.1123   0.2598   0.0541 100.2103 173.8397
  -0.131  -0.7213   0.01345   0.00280   0.1130   0.2585   0.0559 100.3551 174.2128
  -0.045  -0.7135   0.01338   0.00278   0.1133   0.2578   0.0569 100.4288 174.4104
   0.040  -0.7054   0.01332   0.00276   0.1136   0.2572   0.0579 100.5019 174.6199
   0.126  -0.6972   0.01327   0.00274   0.1138   0.2565   0.0590 100.5734 174.8363
   0.211  -0.6890   0.01321   0.00271   0.1141   0.2559   0.0599 100.6427 175.0333
   0.296  -0.6813   0.01313   0.00268   0.1144   0.2553   0.0610 100.7086 175.2469
   0.382  -0.6731   0.01307   0.00267   0.1146   0.2547   0.0621 100.7761 175.4599
   0.467  -0.6648   0.01303   0.00264   0.1149   0.2541   0.0633 100.8453 175.6850
   0.553  -0.6564   0.01299   0.00262   0.1151   0.2534   0.0644 100.9191 175.9056
   0.638  -0.6483   0.01295   0.00259   0.1153   0.2527   0.0655 101.0006 176.1159
   0.724  -0.6401   0.01287   0.00258   0.1156   0.2522   0.0666 101.0528 176.3273
   0.809  -0.6317   0.01282   0.00257   0.1158   0.2517   0.0677 101.1130 176.5446
   0.894  -0.6231   0.01277   0.00255   0.1159   0.2511   0.0689 101.1788 176.7682
   0.980  -0.6144   0.01273   0.00253   0.1161   0.2505   0.0700 101.2482 176.9778
   1.065  -0.6062   0.01266   0.00252   0.1164   0.2498   0.0713 101.3177 177.2025
   1.151  -0.5977   0.01260   0.00251   0.1165   0.2492   0.0725 101.3887 177.4331
   1.236  -0.5890   0.01256   0.00250   0.1167   0.2486   0.0739 101.4594 177.6790
   1.322  -0.5802   0.01253   0.00248   0.1168   0.2480   0.0752 101.5287 177.9187
   1.407  -0.5717   0.01247   0.00246   0.1170   0.2474   0.0764 101.5964 178.1449
   1.492  -0.5631   0.01242   0.00245   0.1172   0.2467   0.0777 101.6641 178.3701
   1.578  -0.5544   0.01238   0.00243   0.1173   0.2461   0.0791 101.7326 178.6076
   1.663  -0.5455   0.01235   0.00241   0.1175   0.2455   0.0804 101.8032 178.8534
   1.749  -0.5368   0.01231   0.00239   0.1176   0.2448   0.0818 101.8773 179.0824
   1.834  -0.5282   0.01227   0.00238   0.1178   0.2441   0.0831 101.9600 179.3157
   1.920  -0.5194   0.01224   0.00237   0.1179   0.2435   0.0845 102.0303 179.5570
   2.005  -0.5104   0.01220   0.00236   0.1180   0.2430   0.0860 102.0908 179.8064
   2.091  -0.5014   0.01217   0.00235   0.1181   0.2424   0.0873 102.1574 180.0322
   2.176  -0.4928   0.01211   0.00234   0.1183   0.2418   0.0887 102.2264 180.2621
   2.261  -0.4839   0.01206   0.00233   0.1184   0.2411   0.0901 102.2971 180.4923
   2.347  -0.4749   0.01203   0.00232   0.1185   0.2405   0.0915 102.3668 180.7351
   2.432  -0.4658   0.01200   0.00230   0.1186   0.2399   0.0929 102.4346 180.9691
   2.518  -0.4570   0.01195   0.00229   0.1187   0.2394   0.0944 102.4998 181.2098
   2.603  -0.4480   0.01191   0.00229   0.1188   0.2388   0.0960 102.5646 181.4559
   2.688  -0.4390   0.01188   0.00227   0.1189   0.2382   0.0976 102.6285 181.7217
   2.774  -0.4298   0.01186   0.00226   0.1190   0.2377   0.0992 102.6920 181.9841
   2.859  -0.4209   0.01182   0.00225   0.1191   0.2371   0.1009 102.7546 182.2545
   2.945  -0.4119   0.01179   0.00224   0.1192   0.2365   0.1027 102.8194 182.5334
   3.030  -0.4028   0.01177   0.00223   0.1193   0.2359   0.1045 102.8874 182.8187
   3.116  -0.3937   0.01176   0.00221   0.1194   0.2353   0.1062 102.9614 183.0767
   3.201  -0.3848   0.01173   0.00221   0.1195   0.2348   0.1079 103.0223 183.3378
   3.286  -0.3757   0.01169   0.00220   0.1195   0.2343   0.1097 103.0709 183.6072
   3.372  -0.3665   0.01166   0.00220   0.1196   0.2339   0.1114 103.1254 183.8816
   3.457  -0.3574   0.01163   0.00219   0.1197   0.2334   0.1132 103.1839 184.1490
   3.543  -0.3483   0.01158   0.00218   0.1198   0.2328   0.1151 103.2447 184.4319
   3.628  -0.3391   0.01155   0.00218   0.1198   0.2323   0.1172 103.3073 184.7363
   3.714  -0.3299   0.01153   0.00217   0.1199   0.2317   0.1192 103.3705 185.0355
   3.799  -0.3209   0.01148   0.00216   0.1200   0.2312   0.1215 103.4326 185.3755
   3.884  -0.3117   0.01145   0.00215   0.1201   0.2307   0.1242 103.4941 185.7674
   3.970  -0.3025   0.01142   0.00214   0.1201   0.2301   0.1269 103.5542 186.1670
   4.055  -0.2935   0.01137   0.00212   0.1202   0.2296   0.1303 103.6126 186.6397
   4.141  -0.2844   0.01133   0.00211   0.1203   0.2291   0.1342 103.6701 187.1994
   4.226  -0.2754   0.01128   0.00209   0.1204   0.2286   0.1399 103.7269 187.9936
   4.397  -0.2717   0.00989   0.00161   0.1226   0.2280   0.4033 103.8053 217.2767
   4.482  -0.2724   0.00890   0.00129   0.1241   0.2277   0.5366 103.8406 230.0658
   4.568  -0.2662   0.00855   0.00119   0.1246   0.2272   0.5878 103.8972 234.9736
   4.653  -0.2587   0.00834   0.00113   0.1249   0.2266   0.6208 103.9644 238.1896
   4.739  -0.2505   0.00818   0.00110   0.1250   0.2261   0.6455 104.0228 240.6208
   4.824  -0.2419   0.00804   0.00108   0.1252   0.2257   0.6653 104.0711 242.6026
   4.910  -0.2331   0.00792   0.00108   0.1253   0.2252   0.6832 104.1245 244.4117
   4.995  -0.2242   0.00782   0.00108   0.1254   0.2247   0.7008 104.1809 246.2219
   5.080  -0.2151   0.00775   0.00111   0.1255   0.2242   0.7156 104.2387 247.7635
   5.166  -0.2058   0.00771   0.00115   0.1256   0.2237   0.7297 104.2974 249.2567
   5.251  -0.1963   0.00770   0.00120   0.1256   0.2232   0.7410 104.3571 250.4723
   5.337  -0.1867   0.00771   0.00125   0.1256   0.2227   0.7503 104.4168 251.4903
   5.422  -0.1769   0.00773   0.00129   0.1256   0.2222   0.7574 104.4762 252.2704
   5.508  -0.1670   0.00775   0.00132   0.1256   0.2217   0.7633 104.5346 252.9188
   5.593  -0.1572   0.00778   0.00137   0.1255   0.2212   0.7676 104.5915 253.4007
   5.678  -0.1472   0.00781   0.00140   0.1255   0.2207   0.7718 104.6472 253.8649
   5.764  -0.1373   0.00784   0.00143   0.1254   0.2203   0.7748 104.7017 254.2138
   5.849  -0.1274   0.00788   0.00147   0.1254   0.2198   0.7779 104.7560 254.5569
   5.935  -0.1174   0.00792   0.00148   0.1253   0.2193   0.7809 104.8121 254.9023
   6.020  -0.1075   0.00797   0.00152   0.1252   0.2188   0.7829 104.8708 255.1345
   6.106  -0.0977   0.00803   0.00156   0.1252   0.2183   0.7847 104.9355 255.3383
   6.191  -0.0878   0.00810   0.00160   0.1251   0.2177   0.7866 105.0047 255.5587
   6.276  -0.0778   0.00813   0.00163   0.1250   0.2173   0.7887 105.0447 255.7979
   6.362  -0.0677   0.00816   0.00166   0.1249   0.2169   0.7907 105.0900 256.0302
   6.447  -0.0578   0.00819   0.00171   0.1249   0.2165   0.7922 105.1392 256.2011
   6.533  -0.0479   0.00823   0.00176   0.1248   0.2161   0.7938 105.1916 256.3958
   6.618  -0.0379   0.00828   0.00181   0.1248   0.2156   0.7957 105.2464 256.6102
   6.704  -0.0279   0.00832   0.00184   0.1247   0.2151   0.7976 105.3043 256.8331
   6.789  -0.0179   0.00835   0.00186   0.1246   0.2146   0.7992 105.3646 257.0227
   6.874  -0.0080   0.00839   0.00191   0.1245   0.2141   0.8002 105.4256 257.1375
   6.960   0.0020   0.00842   0.00194   0.1245   0.2136   0.8012 105.4865 257.2635
   7.045   0.0119   0.00846   0.00198   0.1244   0.2131   0.8024 105.5466 257.4044
   7.131   0.0218   0.00850   0.00201   0.1244   0.2126   0.8037 105.6051 257.5553
   7.216   0.0318   0.00854   0.00203   0.1243   0.2121   0.8050 105.6616 257.7104
   7.301   0.0418   0.00858   0.00205   0.1242   0.2116   0.8063 105.7160 257.8691
   7.387   0.0518   0.00862   0.00206   0.1241   0.2112   0.8076 105.7688 258.0184
   7.472   0.0617   0.00866   0.00210   0.1240   0.2108   0.8084 105.8206 258.1167
   7.558   0.0714   0.00872   0.00215   0.1240   0.2103   0.8093 105.8737 258.2229
   7.643   0.0812   0.00879   0.00219   0.1240   0.2098   0.8103 105.9318 258.3407
   7.729   0.0909   0.00889   0.00224   0.1239   0.2093   0.8113 105.9983 258.4654
   7.814   0.1009   0.00892   0.00228   0.1238   0.2090   0.8123 106.0347 258.5913
   7.899   0.1109   0.00896   0.00232   0.1238   0.2086   0.8134 106.0760 258.7186
   7.985   0.1209   0.00899   0.00235   0.1237   0.2082   0.8146 106.1226 258.8580
   8.070   0.1310   0.00903   0.00238   0.1235   0.2078   0.8158 106.1735 259.0076
   8.156   0.1408   0.00907   0.00243   0.1235   0.2074   0.8166 106.2258 259.1046
   8.241   0.1506   0.00911   0.00249   0.1235   0.2069   0.8174 106.2777 259.2095
   8.327   0.1604   0.00916   0.00254   0.1235   0.2065   0.8183 106.3295 259.3165
   8.412   0.1703   0.00921   0.00258   0.1234   0.2061   0.8192 106.3816 259.4205
   8.498   0.1802   0.00925   0.00262   0.1233   0.2056   0.8200 106.4333 259.5262
   8.583   0.1901   0.00929   0.00265   0.1233   0.2052   0.8210 106.4843 259.6409
   8.668   0.2001   0.00934   0.00268   0.1232   0.2048   0.8220 106.5344 259.7649
   8.754   0.2101   0.00938   0.00270   0.1231   0.2044   0.8230 106.5835 259.8943
   8.839   0.2201   0.00942   0.00272   0.1229   0.2040   0.8240 106.6314 260.0098
   8.925   0.2299   0.00945   0.00275   0.1229   0.2036   0.8244 106.6782 260.0687
   9.010   0.2397   0.00948   0.00277   0.1228   0.2032   0.8248 106.7256 260.1214
   9.095   0.2496   0.00952   0.00280   0.1228   0.2028   0.8253 106.7739 260.1756
   9.181   0.2594   0.00956   0.00282   0.1227   0.2024   0.8257 106.8260 260.2321
   9.266   0.2692   0.00961   0.00284   0.1226   0.2018   0.8262 106.8924 260.2925
   9.352   0.2789   0.00970   0.00286   0.1226   0.2011   0.8267 106.9798 260.3568
   9.437   0.2888   0.00972   0.00288   0.1225   0.2005   0.8273 107.0515 260.4240
   9.523   0.2988   0.00972   0.00290   0.1224   0.1998   0.8278 107.1322 260.4941
   9.608   0.3088   0.00973   0.00290   0.1223   0.1990   0.8284 107.2270 260.5670
   9.694   0.3189   0.00973   0.00290   0.1222   0.1982   0.8290 107.3278 260.6422
   9.779   0.3289   0.00974   0.00290   0.1221   0.1974   0.8296 107.4278 260.7184
   9.864   0.3389   0.00975   0.00288   0.1219   0.1966   0.8302 107.5231 260.7954
   9.950   0.3490   0.00976   0.00287   0.1218   0.1959   0.8309 107.6106 260.8723
  10.035   0.3590   0.00978   0.00285   0.1217   0.1952   0.8315 107.6952 260.9497
  10.121   0.3690   0.00980   0.00284   0.1216   0.1945   0.8320 107.7826 261.0159
  10.206   0.3787   0.00983   0.00284   0.1215   0.1937   0.8324 107.8816 261.0605
  10.291   0.3883   0.00990   0.00285   0.1214   0.1927   0.8327 108.0041 261.1061
  10.377   0.3983   0.00989   0.00286   0.1214   0.1919   0.8331 108.0955 261.1527
  10.462   0.4083   0.00989   0.00287   0.1213   0.1910   0.8335 108.2088 261.2016
  10.548   0.4182   0.00990   0.00287   0.1212   0.1900   0.8339 108.3338 261.2525
  10.633   0.4282   0.00991   0.00287   0.1211   0.1890   0.8343 108.4594 261.3061
  10.719   0.4381   0.00992   0.00286   0.1210   0.1880   0.8347 108.5818 261.3613
  10.804   0.4480   0.00993   0.00285   0.1209   0.1870   0.8352 108.7027 261.4190
  10.889   0.4579   0.00996   0.00283   0.1208   0.1860   0.8356 108.8291 261.4792
  10.975   0.4676   0.01001   0.00283   0.1207   0.1849   0.8361 108.9633 261.5425
  11.060   0.4776   0.01003   0.00284   0.1206   0.1840   0.8367 109.0799 261.6082
  11.146   0.4876   0.01004   0.00284   0.1205   0.1830   0.8372 109.2082 261.6765
  11.231   0.4976   0.01006   0.00284   0.1203   0.1819   0.8378 109.3436 261.7470
  11.317   0.5076   0.01007   0.00284   0.1202   0.1808   0.8383 109.4820 261.8182
  11.402   0.5177   0.01009   0.00283   0.1201   0.1797   0.8389 109.6204 261.8892
  11.487   0.5277   0.01012   0.00281   0.1199   0.1786   0.8394 109.7601 261.9593
  11.573   0.5375   0.01015   0.00279   0.1198   0.1775   0.8399 109.9001 262.0170
  11.658   0.5472   0.01019   0.00280   0.1197   0.1764   0.8402 110.0372 262.0594
  11.744   0.5571   0.01021   0.00283   0.1197   0.1753   0.8405 110.1691 262.1020
  11.829   0.5669   0.01023   0.00284   0.1196   0.1742   0.8409 110.3172 262.1451
  11.915   0.5767   0.01026   0.00285   0.1195   0.1729   0.8412 110.4802 262.1897
  12.000   0.5865   0.01029   0.00285   0.1194   0.1716   0.8416 110.6470 262.2356
