  
       XFOIL         Version 6.99
  
 Calculated polar for: Repaneled_Airfoil                               
  
 1 1 Reynolds number fixed          Mach number fixed         
  
 xtrf =   1.000 (top)        1.000 (bottom)  
 Mach =   0.000     Re =     1.000 e 6     Ncrit =   9.000  9.000
  
   alpha    CL        CD       CDp       CM     Top_Xtr  Bot_Xtr  Top_Itr  Bot_Itr
  ------ -------- --------- --------- -------- -------- -------- -------- --------
  -5.000  -0.1898   0.00866   0.00119  -0.1161   0.6447   0.1609  62.0442 190.4643
  -4.915  -0.1804   0.00865   0.00119  -0.1161   0.6406   0.1650  62.4522 190.9931
  -4.829  -0.1712   0.00863   0.00119  -0.1161   0.6369   0.1687  62.8256 191.4636
  -4.744  -0.1618   0.00862   0.00119  -0.1161   0.6336   0.1723  63.1543 191.9262
  -4.658  -0.1524   0.00860   0.00119  -0.1161   0.6302   0.1757  63.4854 192.3488
  -4.573  -0.1430   0.00860   0.00119  -0.1161   0.6271   0.1791  63.7952 192.7763
  -4.487  -0.1336   0.00859   0.00119  -0.1160   0.6243   0.1820  64.0693 193.1397
  -4.402  -0.1241   0.00857   0.00119  -0.1161   0.6215   0.1850  64.3462 193.5116
  -4.317  -0.1145   0.00857   0.00119  -0.1161   0.6188   0.1879  64.6160 193.8627
  -4.231  -0.1051   0.00857   0.00119  -0.1160   0.6163   0.1902  64.8639 194.1471
  -4.146  -0.0956   0.00857   0.00120  -0.1160   0.6139   0.1925  65.0924 194.4197
  -4.060  -0.0860   0.00856   0.00120  -0.1161   0.6115   0.1946  65.3309 194.6799
  -3.975  -0.0764   0.00856   0.00120  -0.1161   0.6091   0.1966  65.5657 194.9122
  -3.889  -0.0669   0.00856   0.00120  -0.1161   0.6069   0.1983  65.7861 195.1212
  -3.804  -0.0575   0.00856   0.00121  -0.1160   0.6048   0.2001  65.9859 195.3392
  -3.719  -0.0478   0.00856   0.00121  -0.1161   0.6027   0.2021  66.1925 195.5763
  -3.633  -0.0381   0.00856   0.00121  -0.1161   0.6005   0.2042  66.4035 195.8238
  -3.548  -0.0285   0.00857   0.00121  -0.1161   0.5984   0.2061  66.6096 196.0436
  -3.462  -0.0190   0.00857   0.00122  -0.1161   0.5964   0.2078  66.8025 196.2453
  -3.377  -0.0095   0.00858   0.00123  -0.1161   0.5946   0.2095  66.9804 196.4419
  -3.292   0.0002   0.00857   0.00124  -0.1161   0.5927   0.2111  67.1672 196.6305
  -3.206   0.0099   0.00858   0.00123  -0.1161   0.5907   0.2126  67.3618 196.8082
  -3.121   0.0196   0.00859   0.00123  -0.1161   0.5887   0.2141  67.5561 196.9783
  -3.035   0.0291   0.00858   0.00124  -0.1161   0.5868   0.2155  67.7431 197.1492
  -2.950   0.0385   0.00859   0.00125  -0.1161   0.5850   0.2170  67.9184 197.3135
  -2.864   0.0482   0.00860   0.00126  -0.1161   0.5832   0.2184  68.0925 197.4833
  -2.779   0.0579   0.00860   0.00127  -0.1161   0.5812   0.2199  68.2818 197.6574
  -2.693   0.0676   0.00861   0.00127  -0.1161   0.5792   0.2215  68.4715 197.8334
  -2.608   0.0772   0.00863   0.00126  -0.1161   0.5774   0.2228  68.6540 197.9872
  -2.523   0.0867   0.00863   0.00127  -0.1161   0.5756   0.2241  68.8233 198.1356
  -2.437   0.0961   0.00864   0.00128  -0.1161   0.5740   0.2254  68.9791 198.2782
  -2.352   0.1059   0.00864   0.00129  -0.1161   0.5723   0.2266  69.1411 198.4234
  -2.266   0.1156   0.00865   0.00130  -0.1161   0.5706   0.2279  69.3084 198.5699
  -2.181   0.1253   0.00866   0.00130  -0.1161   0.5689   0.2292  69.4727 198.7164
  -2.095   0.1349   0.00867   0.00130  -0.1161   0.5673   0.2305  69.6300 198.8612
  -2.010   0.1445   0.00870   0.00130  -0.1161   0.5657   0.2316  69.7783 198.9882
  -1.925   0.1540   0.00869   0.00130  -0.1161   0.5643   0.2328  69.9163 199.1235
  -1.839   0.1635   0.00869   0.00131  -0.1161   0.5629   0.2339  70.0508 199.2411
  -1.754   0.1732   0.00868   0.00132  -0.1161   0.5614   0.2348  70.1950 199.3507
  -1.668   0.1829   0.00868   0.00132  -0.1161   0.5599   0.2358  70.3426 199.4554
  -1.583   0.1926   0.00869   0.00132  -0.1161   0.5583   0.2367  70.4884 199.5641
  -1.498   0.2022   0.00870   0.00132  -0.1161   0.5569   0.2378  70.6289 199.6779
  -1.412   0.2117   0.00871   0.00132  -0.1161   0.5555   0.2388  70.7625 199.7903
  -1.327   0.2212   0.00873   0.00131  -0.1161   0.5542   0.2397  70.8894 199.8969
  -1.241   0.2308   0.00875   0.00130  -0.1160   0.5529   0.2405  71.0118 199.9899
  -1.156   0.2404   0.00872   0.00130  -0.1161   0.5515   0.2415  71.1426 200.0987
  -1.070   0.2501   0.00871   0.00131  -0.1161   0.5501   0.2424  71.2785 200.1923
  -0.985   0.2597   0.00870   0.00131  -0.1161   0.5487   0.2431  71.4152 200.2757
  -0.899   0.2693   0.00870   0.00130  -0.1161   0.5473   0.2439  71.5489 200.3581
  -0.814   0.2788   0.00871   0.00130  -0.1160   0.5460   0.2446  71.6771 200.4423
  -0.729   0.2884   0.00872   0.00130  -0.1160   0.5447   0.2454  71.7994 200.5315
  -0.643   0.2978   0.00873   0.00130  -0.1160   0.5435   0.2463  71.9162 200.6258
  -0.558   0.3073   0.00874   0.00129  -0.1159   0.5423   0.2471  72.0314 200.7229
  -0.472   0.3171   0.00874   0.00129  -0.1160   0.5410   0.2480  72.1539 200.8197
  -0.387   0.3268   0.00875   0.00129  -0.1160   0.5397   0.2488  72.2804 200.9099
  -0.301   0.3364   0.00876   0.00128  -0.1160   0.5384   0.2495  72.4069 200.9875
  -0.216   0.3460   0.00874   0.00128  -0.1159   0.5371   0.2504  72.5327 201.0798
  -0.131   0.3554   0.00873   0.00127  -0.1159   0.5357   0.2511  72.6662 201.1644
  -0.045   0.3649   0.00874   0.00127  -0.1159   0.5342   0.2519  72.8056 201.2444
   0.040   0.3743   0.00875   0.00127  -0.1158   0.5327   0.2526  72.9498 201.3255
   0.126   0.3839   0.00875   0.00127  -0.1158   0.5311   0.2534  73.1085 201.4106
   0.211   0.3936   0.00875   0.00127  -0.1158   0.5292   0.2542  73.2877 201.4990
   0.296   0.4032   0.00875   0.00126  -0.1158   0.5272   0.2550  73.4791 201.5878
   0.382   0.4127   0.00876   0.00125  -0.1158   0.5253   0.2558  73.6634 201.6754
   0.467   0.4221   0.00877   0.00124  -0.1157   0.5235   0.2566  73.8323 201.7600
   0.553   0.4314   0.00880   0.00124  -0.1157   0.5219   0.2573  73.9841 201.8396
   0.638   0.4411   0.00880   0.00123  -0.1157   0.5203   0.2580  74.1344 201.9164
   0.724   0.4508   0.00880   0.00122  -0.1156   0.5187   0.2587  74.2916 201.9860
   0.809   0.4604   0.00878   0.00122  -0.1156   0.5170   0.2595  74.4498 202.0741
   0.894   0.4699   0.00878   0.00121  -0.1156   0.5153   0.2603  74.6178 202.1594
   0.980   0.4793   0.00878   0.00121  -0.1156   0.5135   0.2610  74.7859 202.2404
   1.065   0.4886   0.00880   0.00121  -0.1155   0.5118   0.2618  74.9465 202.3213
   1.151   0.4981   0.00880   0.00121  -0.1155   0.5101   0.2625  75.1093 202.4062
   1.236   0.5078   0.00880   0.00120  -0.1155   0.5083   0.2634  75.2828 202.4946
   1.322   0.5174   0.00880   0.00120  -0.1154   0.5065   0.2642  75.4568 202.5850
   1.407   0.5269   0.00881   0.00119  -0.1154   0.5048   0.2650  75.6231 202.6751
   1.492   0.5363   0.00883   0.00119  -0.1153   0.5031   0.2658  75.7831 202.7626
   1.578   0.5456   0.00885   0.00118  -0.1153   0.5015   0.2666  75.9396 202.8439
   1.663   0.5552   0.00886   0.00117  -0.1152   0.4997   0.2673  76.1090 202.9180
   1.749   0.5648   0.00887   0.00117  -0.1152   0.4976   0.2679  76.3084 202.9839
   1.834   0.5743   0.00886   0.00116  -0.1152   0.4954   0.2686  76.5188 203.0658
   1.920   0.5837   0.00886   0.00115  -0.1151   0.4933   0.2694  76.7174 203.1478
   2.005   0.5930   0.00887   0.00115  -0.1151   0.4915   0.2701  76.8907 203.2255
   2.091   0.6024   0.00888   0.00115  -0.1150   0.4899   0.2708  77.0426 203.3024
   2.176   0.6120   0.00888   0.00114  -0.1150   0.4881   0.2716  77.2188 203.3818
   2.261   0.6216   0.00888   0.00114  -0.1150   0.4859   0.2724  77.4243 203.4649
   2.347   0.6310   0.00889   0.00113  -0.1149   0.4837   0.2732  77.6373 203.5526
   2.432   0.6403   0.00891   0.00113  -0.1148   0.4815   0.2740  77.8434 203.6432
   2.518   0.6496   0.00893   0.00112  -0.1147   0.4794   0.2749  78.0438 203.7343
   2.603   0.6592   0.00894   0.00111  -0.1147   0.4771   0.2757  78.2656 203.8243
   2.688   0.6687   0.00895   0.00111  -0.1147   0.4747   0.2765  78.5010 203.9078
   2.774   0.6781   0.00898   0.00110  -0.1146   0.4722   0.2772  78.7341 203.9809
   2.859   0.6872   0.00899   0.00109  -0.1145   0.4698   0.2780  78.9641 204.0701
   2.945   0.6967   0.00899   0.00109  -0.1145   0.4672   0.2789  79.2201 204.1617
   3.030   0.7062   0.00899   0.00109  -0.1144   0.4641   0.2797  79.5169 204.2495
   3.116   0.7155   0.00901   0.00108  -0.1143   0.4610   0.2806  79.8096 204.3382
   3.201   0.7247   0.00903   0.00108  -0.1143   0.4582   0.2814  80.0818 204.4281
   3.286   0.7342   0.00904   0.00107  -0.1142   0.4549   0.2823  80.3937 204.5223
   3.372   0.7435   0.00906   0.00107  -0.1141   0.4514   0.2832  80.7299 204.6202
   3.457   0.7526   0.00910   0.00106  -0.1140   0.4479   0.2842  81.0689 204.7192
   3.543   0.7620   0.00912   0.00106  -0.1139   0.4435   0.2851  81.4941 204.8188
   3.628   0.7710   0.00917   0.00105  -0.1138   0.4384   0.2860  81.9780 204.9118
   3.714   0.7803   0.00920   0.00105  -0.1137   0.4326   0.2868  82.5392 204.9969
   3.799   0.7893   0.00923   0.00104  -0.1136   0.4265   0.2878  83.1303 205.1068
   3.884   0.7983   0.00927   0.00104  -0.1135   0.4195   0.2888  83.8085 205.2095
   3.970   0.8073   0.00932   0.00105  -0.1134   0.4118   0.2897  84.5565 205.3069
   4.055   0.8161   0.00938   0.00105  -0.1132   0.4024   0.2906  85.4645 205.4028
   4.141   0.8247   0.00948   0.00106  -0.1130   0.3898   0.2916  86.6946 205.4991
   4.226   0.8329   0.00961   0.00108  -0.1128   0.3734   0.2925  88.3101 205.5955
   4.312   0.8399   0.00988   0.00114  -0.1123   0.3392   0.2934  91.7283 205.6889
   4.482   0.8447   0.01153   0.00182  -0.1101   0.1592   0.2947 111.8884 205.8305
   4.568   0.8529   0.01167   0.00187  -0.1099   0.1477   0.2956 113.4189 205.9245
   4.739   0.8700   0.01188   0.00196  -0.1095   0.1329   0.2976 115.4530 206.1310
   4.824   0.8787   0.01197   0.00199  -0.1093   0.1274   0.2987 116.2365 206.2429
   4.995   0.8962   0.01213   0.00205  -0.1090   0.1181   0.3010 117.5771 206.4829
   5.080   0.9049   0.01221   0.00208  -0.1089   0.1143   0.3022 118.1509 206.6143
   5.166   0.9137   0.01228   0.00211  -0.1087   0.1105   0.3036 118.7256 206.7502
   5.251   0.9225   0.01236   0.00213  -0.1085   0.1071   0.3048 119.2410 206.8844
   5.422   0.9400   0.01250   0.00219  -0.1082   0.1008   0.3075 120.2239 207.1637
   5.508   0.9487   0.01257   0.00222  -0.1080   0.0978   0.3090 120.7048 207.3143
   5.593   0.9574   0.01264   0.00225  -0.1079   0.0951   0.3105 121.1475 207.4714
   5.678   0.9661   0.01271   0.00227  -0.1077   0.0922   0.3121 121.6279 207.6370
   5.764   0.9747   0.01279   0.00230  -0.1075   0.0894   0.3138 122.0841 207.8066
   5.849   0.9834   0.01286   0.00233  -0.1073   0.0867   0.3155 122.5502 207.9791
   5.935   0.9919   0.01295   0.00237  -0.1071   0.0840   0.3174 123.0021 208.1744
   6.020   1.0006   0.01301   0.00239  -0.1070   0.0815   0.3196 123.4440 208.4038
   6.106   1.0091   0.01309   0.00243  -0.1068   0.0789   0.3221 123.8891 208.6596
   6.191   1.0177   0.01316   0.00246  -0.1066   0.0766   0.3248 124.2970 208.9327
   6.276   1.0262   0.01324   0.00249  -0.1064   0.0742   0.3278 124.7299 209.2401
   6.362   1.0346   0.01332   0.00253  -0.1062   0.0721   0.3315 125.1261 209.6101
   6.533   1.0514   0.01347   0.00260  -0.1057   0.0679   0.3409 125.9157 210.5635
   6.618   1.0600   0.01353   0.00264  -0.1055   0.0660   0.3482 126.2700 211.2922
   6.704   1.0684   0.01359   0.00268  -0.1053   0.0641   0.3605 126.6481 212.5207
   6.789   1.0767   0.01362   0.00273  -0.1052   0.0623   0.4001 127.0003 216.4191
   6.874   1.0856   0.01322   0.00291  -0.1053   0.0606   0.6997 127.3287 245.6258
   6.960   1.0938   0.01332   0.00297  -0.1051   0.0589   0.7125 127.6706 246.9637
   7.045   1.1017   0.01344   0.00303  -0.1047   0.0573   0.7209 127.9913 247.8575
   7.131   1.1100   0.01353   0.00308  -0.1045   0.0559   0.7270 128.2847 248.5073
   7.216   1.1181   0.01363   0.00313  -0.1042   0.0545   0.7319 128.5930 249.0368
   7.301   1.1259   0.01375   0.00319  -0.1038   0.0531   0.7358 128.8859 249.4577
   7.387   1.1339   0.01386   0.00324  -0.1035   0.0518   0.7396 129.1554 249.8701
   7.472   1.1420   0.01395   0.00329  -0.1032   0.0505   0.7427 129.4429 250.2039
   7.558   1.1499   0.01406   0.00335  -0.1029   0.0492   0.7457 129.7249 250.5294
   7.643   1.1574   0.01420   0.00340  -0.1025   0.0480   0.7486 129.9914 250.8475
   7.729   1.1655   0.01429   0.00345  -0.1022   0.0469   0.7511 130.2386 251.1280
   7.814   1.1733   0.01439   0.00350  -0.1019   0.0457   0.7535 130.5084 251.3916
   7.899   1.1809   0.01451   0.00356  -0.1015   0.0446   0.7558 130.7707 251.6509
   7.985   1.1883   0.01465   0.00362  -0.1011   0.0435   0.7580 131.0255 251.8896
   8.070   1.1962   0.01474   0.00367  -0.1007   0.0425   0.7599 131.2598 252.1015
   8.156   1.2038   0.01484   0.00372  -0.1004   0.0414   0.7618 131.5080 252.3097
   8.241   1.2111   0.01497   0.00378  -0.0999   0.0405   0.7638 131.7430 252.5390
   8.327   1.2180   0.01513   0.00385  -0.0995   0.0395   0.7659 131.9752 252.7732
   8.412   1.2258   0.01523   0.00390  -0.0991   0.0387   0.7679 132.1702 252.9992
   8.498   1.2333   0.01533   0.00395  -0.0987   0.0379   0.7695 132.3837 253.1839
   8.583   1.2406   0.01544   0.00401  -0.0983   0.0370   0.7711 132.5969 253.3693
   8.668   1.2476   0.01558   0.00407  -0.0978   0.0362   0.7728 132.7981 253.5555
   8.754   1.2541   0.01574   0.00414  -0.0973   0.0354   0.7744 133.0010 253.7360
   8.839   1.2616   0.01584   0.00419  -0.0969   0.0348   0.7760 133.1707 253.9219
   8.925   1.2688   0.01595   0.00424  -0.0964   0.0341   0.7774 133.3561 254.0871
   9.010   1.2754   0.01606   0.00430  -0.0959   0.0334   0.7788 133.5358 254.2454
   9.095   1.2815   0.01619   0.00435  -0.0952   0.0328   0.7802 133.7022 254.4033
   9.181   1.2871   0.01633   0.00441  -0.0944   0.0322   0.7815 133.8635 254.5557
   9.266   1.2924   0.01649   0.00449  -0.0937   0.0316   0.7828 134.0239 254.7065
   9.352   1.2991   0.01660   0.00454  -0.0931   0.0311   0.7842 134.1570 254.8643
   9.523   1.3119   0.01686   0.00467  -0.0919   0.0300   0.7867 134.4515 255.1585
   9.608   1.3180   0.01700   0.00474  -0.0913   0.0295   0.7880 134.5957 255.3082
   9.694   1.3240   0.01716   0.00482  -0.0907   0.0290   0.7893 134.7342 255.4626
   9.779   1.3295   0.01734   0.00491  -0.0900   0.0285   0.7907 134.8734 255.6203
   9.864   1.3346   0.01755   0.00502  -0.0892   0.0280   0.7920 135.0142 255.7799
   9.950   1.3412   0.01768   0.00509  -0.0887   0.0277   0.7935 135.1174 255.9507
  10.035   1.3476   0.01782   0.00516  -0.0881   0.0273   0.7949 135.2363 256.1137
  10.121   1.3537   0.01796   0.00524  -0.0875   0.0269   0.7963 135.3600 256.2826
  10.206   1.3598   0.01811   0.00532  -0.0869   0.0265   0.7977 135.4822 256.4547
  10.291   1.3656   0.01827   0.00540  -0.0863   0.0261   0.7992 135.6014 256.6244
  10.377   1.3713   0.01845   0.00549  -0.0856   0.0257   0.8005 135.7146 256.7861
  10.462   1.3766   0.01865   0.00559  -0.0849   0.0253   0.8018 135.8242 256.9370
  10.548   1.3813   0.01887   0.00571  -0.0841   0.0249   0.8030 135.9370 257.0796
  10.633   1.3862   0.01908   0.00582  -0.0834   0.0246   0.8042 136.0355 257.2294
  10.719   1.3922   0.01923   0.00591  -0.0827   0.0244   0.8056 136.1196 257.3929
  10.804   1.3979   0.01940   0.00600  -0.0821   0.0241   0.8070 136.2109 257.5628
  10.889   1.4034   0.01958   0.00610  -0.0815   0.0238   0.8084 136.3044 257.7358
  10.975   1.4089   0.01976   0.00620  -0.0808   0.0235   0.8098 136.3971 257.9072
  11.060   1.4143   0.01995   0.00630  -0.0801   0.0232   0.8112 136.4875 258.0707
  11.146   1.4195   0.02015   0.00641  -0.0795   0.0229   0.8126 136.5760 258.2454
  11.231   1.4245   0.02035   0.00653  -0.0788   0.0226   0.8142 136.6617 258.4382
  11.317   1.4293   0.02058   0.00665  -0.0780   0.0224   0.8159 136.7458 258.6548
  11.402   1.4336   0.02082   0.00679  -0.0772   0.0221   0.8178 136.8314 258.8885
  11.487   1.4373   0.02111   0.00695  -0.0763   0.0218   0.8198 136.9216 259.1285
  11.573   1.4406   0.02141   0.00713  -0.0754   0.0216   0.8220 137.0088 259.4040
  11.658   1.4459   0.02161   0.00725  -0.0748   0.0214   0.8244 137.0638 259.7108
  11.829   1.4559   0.02203   0.00751  -0.0734   0.0210   0.8298 137.1936 260.3963
  11.915   1.4606   0.02225   0.00765  -0.0727   0.0208   0.8333 137.2641 260.8332
  12.000   1.4653   0.02248   0.00779  -0.0720   0.0206   0.8378 137.3356 261.4225
