  
       XFOIL         Version 6.99
  
 Calculated polar for: Repaneled_Airfoil                               
  
 1 1 Reynolds number fixed          Mach number fixed         
  
 xtrf =   1.000 (top)        1.000 (bottom)  
 Mach =   0.000     Re =     1.000 e 6     Ncrit =   9.000  9.000
  
   alpha    CL        CD       CDp       CM     Top_Xtr  Bot_Xtr  Top_Itr  Bot_Itr
  ------ -------- --------- --------- -------- -------- -------- -------- --------
  -5.000  -0.3492   0.00934   0.00195  -0.0174   0.7302   0.1777  53.0793 192.4453
  -4.915  -0.3394   0.00931   0.00195  -0.0174   0.7296   0.1790  53.1410 192.6055
  -4.829  -0.3295   0.00929   0.00195  -0.0174   0.7290   0.1803  53.2044 192.7612
  -4.744  -0.3196   0.00928   0.00194  -0.0174   0.7284   0.1815  53.2683 192.9161
  -4.658  -0.3098   0.00925   0.00194  -0.0174   0.7278   0.1828  53.3320 193.0736
  -4.573  -0.3002   0.00921   0.00193  -0.0174   0.7272   0.1841  53.3958 193.2419
  -4.487  -0.2904   0.00918   0.00193  -0.0174   0.7266   0.1855  53.4591 193.4068
  -4.402  -0.2806   0.00916   0.00192  -0.0174   0.7260   0.1868  53.5209 193.5664
  -4.317  -0.2708   0.00914   0.00192  -0.0174   0.7255   0.1881  53.5808 193.7274
  -4.231  -0.2609   0.00912   0.00191  -0.0174   0.7249   0.1893  53.6394 193.8793
  -4.146  -0.2510   0.00911   0.00189  -0.0174   0.7244   0.1905  53.6983 194.0174
  -4.060  -0.2414   0.00906   0.00188  -0.0173   0.7238   0.1918  53.7572 194.1839
  -3.975  -0.2317   0.00902   0.00186  -0.0173   0.7233   0.1931  53.8161 194.3431
  -3.889  -0.2220   0.00900   0.00185  -0.0173   0.7227   0.1944  53.8746 194.5006
  -3.804  -0.2122   0.00898   0.00183  -0.0173   0.7222   0.1958  53.9322 194.6625
  -3.719  -0.2024   0.00898   0.00181  -0.0173   0.7217   0.1971  53.9897 194.8176
  -3.633  -0.1925   0.00896   0.00181  -0.0173   0.7209   0.1982  54.0686 194.9514
  -3.548  -0.1827   0.00891   0.00179  -0.0173   0.7201   0.1993  54.1554 195.0918
  -3.462  -0.1731   0.00886   0.00178  -0.0173   0.7193   0.2006  54.2439 195.2395
  -3.377  -0.1633   0.00882   0.00177  -0.0173   0.7184   0.2018  54.3311 195.3812
  -3.292  -0.1535   0.00879   0.00176  -0.0173   0.7176   0.2030  54.4154 195.5213
  -3.206  -0.1437   0.00876   0.00174  -0.0173   0.7169   0.2042  54.4964 195.6633
  -3.121  -0.1339   0.00873   0.00172  -0.0173   0.7161   0.2053  54.5749 195.7981
  -3.035  -0.1241   0.00871   0.00170  -0.0173   0.7154   0.2063  54.6519 195.9199
  -2.950  -0.1143   0.00868   0.00168  -0.0173   0.7147   0.2073  54.7266 196.0324
  -2.864  -0.1046   0.00862   0.00165  -0.0172   0.7140   0.2084  54.7975 196.1659
  -2.779  -0.0950   0.00858   0.00162  -0.0172   0.7134   0.2094  54.8663 196.2852
  -2.693  -0.0853   0.00855   0.00159  -0.0172   0.7127   0.2104  54.9342 196.3973
  -2.608  -0.0755   0.00852   0.00156  -0.0172   0.7121   0.2113  55.0029 196.5100
  -2.523  -0.0657   0.00848   0.00155  -0.0172   0.7111   0.2124  55.1033 196.6297
  -2.437  -0.0559   0.00845   0.00154  -0.0172   0.7101   0.2134  55.2040 196.7536
  -2.352  -0.0460   0.00842   0.00153  -0.0172   0.7092   0.2145  55.3058 196.8761
  -2.266  -0.0362   0.00840   0.00151  -0.0172   0.7082   0.2154  55.4092 196.9885
  -2.181  -0.0265   0.00834   0.00148  -0.0172   0.7072   0.2166  55.5143 197.1312
  -2.095  -0.0168   0.00829   0.00145  -0.0172   0.7062   0.2179  55.6193 197.2735
  -2.010  -0.0071   0.00825   0.00142  -0.0172   0.7052   0.2191  55.7223 197.4155
  -1.925   0.0027   0.00821   0.00139  -0.0172   0.7042   0.2204  55.8233 197.5615
  -1.839   0.0124   0.00817   0.00135  -0.0172   0.7033   0.2217  55.9205 197.7107
  -1.754   0.0222   0.00815   0.00132  -0.0172   0.7023   0.2229  56.0218 197.8557
  -1.668   0.0320   0.00811   0.00131  -0.0172   0.7010   0.2241  56.1633 197.9920
  -1.583   0.0418   0.00806   0.00129  -0.0172   0.6996   0.2255  56.3010 198.1550
  -1.498   0.0515   0.00801   0.00126  -0.0172   0.6984   0.2270  56.4316 198.3248
  -1.412   0.0612   0.00797   0.00124  -0.0172   0.6972   0.2286  56.5540 198.5073
  -1.327   0.0710   0.00793   0.00121  -0.0172   0.6961   0.2304  56.6680 198.7049
  -1.241   0.0808   0.00790   0.00119  -0.0172   0.6951   0.2322  56.7700 198.9120
  -1.156   0.0905   0.00786   0.00116  -0.0172   0.6942   0.2342  56.8634 199.1411
  -1.070   0.1002   0.00782   0.00113  -0.0172   0.6933   0.2366  56.9549 199.4082
  -0.985   0.1099   0.00778   0.00111  -0.0172   0.6922   0.2393  57.0740 199.7124
  -0.814   0.1293   0.00767   0.00107  -0.0172   0.6888   0.2461  57.4200 200.4687
  -0.729   0.1390   0.00762   0.00104  -0.0172   0.6871   0.2507  57.5969 200.9812
  -0.643   0.1486   0.00755   0.00100  -0.0172   0.6855   0.2571  57.7571 201.6839
  -0.558   0.1581   0.00748   0.00097  -0.0172   0.6842   0.2661  57.8948 202.6669
  -0.472   0.1674   0.00741   0.00094  -0.0171   0.6830   0.2802  58.0184 204.1765
  -0.387   0.1767   0.00731   0.00094  -0.0171   0.6814   0.3017  58.1817 206.4460
  -0.301   0.1859   0.00721   0.00093  -0.0170   0.6797   0.3263  58.3559 208.9757
  -0.216   0.1952   0.00712   0.00092  -0.0170   0.6779   0.3477  58.5399 211.1437
  -0.131   0.2046   0.00705   0.00091  -0.0169   0.6761   0.3654  58.7190 212.9113
  -0.045   0.2140   0.00699   0.00089  -0.0169   0.6745   0.3800  58.8847 214.3514
   0.040   0.2235   0.00694   0.00087  -0.0169   0.6729   0.3926  59.0475 215.5900
   0.126   0.2331   0.00690   0.00088  -0.0169   0.6708   0.4037  59.2520 216.6734
   0.211   0.2427   0.00686   0.00087  -0.0169   0.6689   0.4135  59.4503 217.6313
   0.296   0.2524   0.00682   0.00087  -0.0169   0.6670   0.4225  59.6402 218.4990
   0.382   0.2620   0.00679   0.00085  -0.0169   0.6652   0.4307  59.8274 219.2976
   0.467   0.2716   0.00676   0.00083  -0.0168   0.6632   0.4387  60.0198 220.0659
   0.553   0.2813   0.00673   0.00083  -0.0169   0.6605   0.4464  60.2990 220.8143
   0.638   0.2909   0.00670   0.00082  -0.0169   0.6577   0.4537  60.5793 221.5157
   0.724   0.3005   0.00667   0.00080  -0.0169   0.6552   0.4609  60.8317 222.1985
   0.809   0.3102   0.00665   0.00079  -0.0169   0.6528   0.4680  61.0726 222.8794
   0.894   0.3199   0.00663   0.00079  -0.0169   0.6498   0.4747  61.3650 223.5241
   0.980   0.3295   0.00661   0.00078  -0.0169   0.6470   0.4813  61.6509 224.1557
   1.065   0.3391   0.00659   0.00077  -0.0169   0.6442   0.4879  61.9269 224.7916
   1.151   0.3488   0.00657   0.00076  -0.0169   0.6408   0.4942  62.2631 225.3856
   1.322   0.3679   0.00654   0.00074  -0.0169   0.6332   0.5070  63.0188 226.6167
   1.407   0.3776   0.00652   0.00073  -0.0169   0.6283   0.5134  63.4996 227.2295
   1.492   0.3870   0.00652   0.00071  -0.0169   0.6232   0.5203  64.0042 227.8884
   1.578   0.3965   0.00650   0.00070  -0.0169   0.6169   0.5272  64.6198 228.5494
   1.663   0.4059   0.00650   0.00069  -0.0168   0.6106   0.5345  65.2363 229.2456
   1.834   0.4247   0.00650   0.00068  -0.0168   0.5962   0.5506  66.6422 230.7929
   1.920   0.4338   0.00651   0.00067  -0.0167   0.5875   0.5596  67.4832 231.6521
   2.005   0.4429   0.00652   0.00067  -0.0167   0.5771   0.5697  68.4881 232.6305
   2.091   0.4518   0.00654   0.00066  -0.0166   0.5650   0.5813  69.6556 233.7488
   2.176   0.4604   0.00657   0.00066  -0.0164   0.5510   0.5956  71.0019 235.1337
   2.261   0.4687   0.00659   0.00066  -0.0162   0.5336   0.6153  72.6640 237.0617
   2.347   0.4753   0.00651   0.00064  -0.0158   0.5144   0.6613  74.4971 241.6384
   2.432   0.4744   0.00602   0.00073  -0.0135   0.4998   0.8796  75.8852 267.1128
   2.518   0.4820   0.00620   0.00081  -0.0131   0.4745   0.8927  78.3011 269.0852
   2.603   0.4896   0.00640   0.00089  -0.0128   0.4477   0.9004  80.8656 270.2976
   2.688   0.4972   0.00662   0.00097  -0.0125   0.4203   0.9063  83.5037 271.2406
   2.774   0.5049   0.00684   0.00106  -0.0122   0.3938   0.9111  86.0761 272.0491
   2.859   0.5126   0.00704   0.00114  -0.0119   0.3701   0.9151  88.4049 272.7289
   2.945   0.5205   0.00723   0.00122  -0.0117   0.3495   0.9186  90.4559 273.3336
   3.030   0.5285   0.00741   0.00129  -0.0115   0.3313   0.9221  92.2889 273.9549
   3.116   0.5365   0.00757   0.00137  -0.0112   0.3151   0.9249  93.9427 274.4610
   3.201   0.5447   0.00773   0.00143  -0.0111   0.2994   0.9280  95.5717 275.0093
   3.286   0.5526   0.00788   0.00150  -0.0108   0.2843   0.9302  97.1537 275.4250
   3.372   0.5606   0.00806   0.00157  -0.0106   0.2669   0.9326  99.0074 275.8874
   3.457   0.5684   0.00824   0.00164  -0.0103   0.2451   0.9346 101.4020 276.2618
   3.543   0.5713   0.00896   0.00190  -0.0095   0.1547   0.9366 112.2599 276.6632
   3.628   0.5784   0.00922   0.00204  -0.0092   0.1354   0.9387 114.8779 277.0743
   3.714   0.5863   0.00938   0.00212  -0.0089   0.1274   0.9404 116.0088 277.4237
   3.799   0.5945   0.00949   0.00218  -0.0087   0.1215   0.9424 116.8656 277.8229
   3.884   0.6029   0.00960   0.00224  -0.0085   0.1166   0.9441 117.5806 278.1659
   3.970   0.6112   0.00970   0.00229  -0.0083   0.1124   0.9456 118.2120 278.4962
   4.055   0.6196   0.00979   0.00234  -0.0082   0.1084   0.9474 118.8216 278.8740
   4.141   0.6280   0.00988   0.00238  -0.0080   0.1051   0.9489 119.3410 279.1847
   4.226   0.6363   0.00997   0.00243  -0.0077   0.1018   0.9503 119.8449 279.4954
   4.312   0.6448   0.01005   0.00247  -0.0076   0.0990   0.9519 120.3011 279.8484
   4.397   0.6531   0.01013   0.00251  -0.0074   0.0961   0.9533 120.7692 280.1585
   4.482   0.6614   0.01021   0.00255  -0.0072   0.0935   0.9546 121.1869 280.4582
   4.568   0.6697   0.01029   0.00259  -0.0069   0.0909   0.9562 121.6222 280.8282
   4.653   0.6778   0.01038   0.00263  -0.0067   0.0884   0.9576 122.0229 281.1680
   4.739   0.6860   0.01045   0.00267  -0.0065   0.0862   0.9590 122.4037 281.4926
   4.824   0.6942   0.01054   0.00271  -0.0062   0.0840   0.9605 122.7882 281.8603
   4.910   0.7023   0.01062   0.00275  -0.0060   0.0819   0.9617 123.1401 282.1736
   4.995   0.7106   0.01069   0.00279  -0.0058   0.0798   0.9629 123.5211 282.4730
   5.080   0.7187   0.01079   0.00283  -0.0056   0.0776   0.9643 123.9019 282.8102
   5.166   0.7270   0.01086   0.00287  -0.0054   0.0756   0.9654 124.2642 283.1142
   5.251   0.7352   0.01094   0.00291  -0.0052   0.0734   0.9665 124.6575 283.3891
   5.337   0.7432   0.01104   0.00295  -0.0049   0.0714   0.9677 125.0241 283.7251
   5.422   0.7514   0.01111   0.00299  -0.0047   0.0695   0.9691 125.3776 284.0881
   5.508   0.7595   0.01120   0.00303  -0.0045   0.0676   0.9702 125.7398 284.4046
   5.593   0.7674   0.01130   0.00307  -0.0042   0.0659   0.9716 126.0706 284.7956
   5.678   0.7757   0.01137   0.00311  -0.0040   0.0641   0.9728 126.4134 285.1503
   5.764   0.7840   0.01147   0.00315  -0.0039   0.0623   0.9738 126.7647 285.4603
   5.849   0.7921   0.01157   0.00320  -0.0037   0.0607   0.9750 127.0767 285.8289
   5.935   0.8006   0.01165   0.00324  -0.0036   0.0592   0.9760 127.3964 286.1380
   6.020   0.8093   0.01174   0.00328  -0.0035   0.0576   0.9768 127.7229 286.3890
   6.106   0.8177   0.01186   0.00333  -0.0034   0.0561   0.9778 128.0245 286.6862
   6.191   0.8261   0.01193   0.00338  -0.0033   0.0548   0.9789 128.3036 287.0471
   6.276   0.8352   0.01204   0.00343  -0.0033   0.0533   0.9796 128.6061 287.2987
   6.362   0.8439   0.01216   0.00348  -0.0033   0.0520   0.9805 128.8880 287.6158
   6.447   0.8523   0.01226   0.00353  -0.0032   0.0508   0.9817 129.1390 288.0155
   6.533   0.8620   0.01235   0.00359  -0.0034   0.0496   0.9823 129.4220 288.2478
   6.618   0.8714   0.01247   0.00365  -0.0035   0.0483   0.9831 129.6994 288.5446
   6.704   0.8799   0.01260   0.00371  -0.0035   0.0471   0.9842 129.9538 288.9552
   6.789   0.8900   0.01271   0.00377  -0.0038   0.0461   0.9849 130.1980 289.2042
   6.874   0.9002   0.01282   0.00384  -0.0041   0.0449   0.9855 130.4619 289.4664
   6.960   0.9098   0.01295   0.00391  -0.0043   0.0439   0.9864 130.7113 289.8202
   7.045   0.9195   0.01310   0.00399  -0.0045   0.0428   0.9871 130.9603 290.1234
   7.131   0.9301   0.01322   0.00406  -0.0050   0.0418   0.9876 131.1854 290.3193
   7.216   0.9404   0.01334   0.00413  -0.0053   0.0408   0.9880 131.4274 290.5260
   7.301   0.9501   0.01348   0.00420  -0.0056   0.0399   0.9886 131.6645 290.7665
   7.387   0.9591   0.01363   0.00428  -0.0057   0.0389   0.9892 131.8976 291.0411
   7.472   0.9692   0.01377   0.00436  -0.0061   0.0380   0.9895 132.1193 291.1626
   7.558   0.9795   0.01388   0.00442  -0.0064   0.0371   0.9897 132.3471 291.2824
   7.643   0.9897   0.01401   0.00449  -0.0068   0.0362   0.9900 132.5812 291.4155
   7.729   0.9997   0.01416   0.00457  -0.0072   0.0353   0.9903 132.7997 291.5786
   7.814   1.0091   0.01435   0.00467  -0.0074   0.0345   0.9908 133.0123 291.7977
   7.899   1.0190   0.01446   0.00474  -0.0077   0.0339   0.9912 133.1829 292.0305
   7.985   1.0293   0.01459   0.00482  -0.0081   0.0331   0.9915 133.3766 292.1426
   8.070   1.0394   0.01473   0.00489  -0.0085   0.0324   0.9917 133.5702 292.2768
   8.156   1.0491   0.01489   0.00498  -0.0089   0.0317   0.9920 133.7570 292.4388
   8.241   1.0583   0.01509   0.00509  -0.0091   0.0310   0.9924 133.9540 292.6549
   8.327   1.0677   0.01523   0.00517  -0.0094   0.0304   0.9929 134.1091 292.9194
   8.412   1.0776   0.01537   0.00525  -0.0097   0.0299   0.9932 134.2694 293.1027
   8.498   1.0875   0.01552   0.00534  -0.0101   0.0293   0.9935 134.4350 293.2668
   8.583   1.0972   0.01568   0.00543  -0.0104   0.0287   0.9938 134.5977 293.4696
   8.668   1.1066   0.01586   0.00553  -0.0107   0.0282   0.9942 134.7542 293.7318
   8.754   1.1156   0.01609   0.00566  -0.0110   0.0276   0.9948 134.9177 294.0620
   8.839   1.1252   0.01629   0.00578  -0.0113   0.0271   0.9951 135.0594 294.2879
   8.925   1.1351   0.01643   0.00587  -0.0117   0.0267   0.9954 135.1861 294.5367
   9.010   1.1449   0.01659   0.00597  -0.0121   0.0262   0.9959 135.3246 294.8524
   9.095   1.1549   0.01676   0.00607  -0.0125   0.0258   0.9963 135.4636 295.1618
   9.181   1.1649   0.01694   0.00617  -0.0130   0.0253   0.9967 135.5999 295.4730
   9.266   1.1747   0.01714   0.00629  -0.0134   0.0249   0.9971 135.7295 295.8672
   9.352   1.1843   0.01737   0.00643  -0.0138   0.0245   0.9976 135.8581 296.2710
   9.437   1.1933   0.01767   0.00660  -0.0142   0.0240   0.9981 135.9985 296.7764
   9.523   1.2033   0.01785   0.00671  -0.0147   0.0237   0.9984 136.0882 297.2258
   9.608   1.2131   0.01803   0.00683  -0.0151   0.0234   0.9988 136.1906 297.7237
   9.694   1.2225   0.01822   0.00695  -0.0154   0.0231   0.9992 136.2975 298.3039
   9.779   1.2315   0.01842   0.00707  -0.0158   0.0227   0.9996 136.4026 298.9843
   9.950   1.2398   0.01875   0.00723  -0.0144   0.0223   1.0000 136.5567 301.0000
  10.035   1.2299   0.01882   0.00718  -0.0109   0.0222   1.0000 136.5618 301.0000
  10.121   1.2202   0.01889   0.00714  -0.0076   0.0222   1.0000 136.5675 301.0000
  10.206   1.2162   0.01904   0.00717  -0.0054   0.0221   1.0000 136.6022 301.0000
  10.291   1.2175   0.01926   0.00727  -0.0044   0.0219   1.0000 136.6623 301.0000
  10.377   1.2209   0.01952   0.00740  -0.0039   0.0217   1.0000 136.7330 301.0000
  10.462   1.2249   0.01981   0.00757  -0.0035   0.0215   1.0000 136.8094 301.0000
  10.548   1.2289   0.02015   0.00776  -0.0031   0.0212   1.0000 136.8922 301.0000
  10.633   1.2324   0.02056   0.00800  -0.0028   0.0210   1.0000 136.9819 301.0000
  10.719   1.2377   0.02084   0.00817  -0.0026   0.0208   1.0000 137.0401 301.0000
  10.804   1.2435   0.02110   0.00832  -0.0025   0.0206   1.0000 137.0978 301.0000
  10.889   1.2491   0.02137   0.00849  -0.0023   0.0204   1.0000 137.1619 301.0000
  10.975   1.2547   0.02165   0.00866  -0.0022   0.0202   1.0000 137.2304 301.0000
  11.060   1.2602   0.02193   0.00883  -0.0020   0.0200   1.0000 137.3011 301.0000
  11.146   1.2656   0.02223   0.00900  -0.0019   0.0198   1.0000 137.3725 301.0000
  11.231   1.2710   0.02252   0.00918  -0.0017   0.0196   1.0000 137.4435 301.0000
  11.317   1.2763   0.02282   0.00936  -0.0016   0.0194   1.0000 137.5131 301.0000
  11.402   1.2816   0.02313   0.00955  -0.0014   0.0192   1.0000 137.5813 301.0000
  11.487   1.2866   0.02345   0.00974  -0.0013   0.0190   1.0000 137.6489 301.0000
  11.573   1.2915   0.02379   0.00994  -0.0011   0.0188   1.0000 137.7158 301.0000
  11.658   1.2959   0.02416   0.01017  -0.0009   0.0186   1.0000 137.7831 301.0000
  11.744   1.2999   0.02457   0.01042  -0.0007   0.0184   1.0000 137.8529 301.0000
  11.829   1.3032   0.02503   0.01070  -0.0004   0.0182   1.0000 137.9272 301.0000
  11.915   1.3057   0.02556   0.01104  -0.0000   0.0180   1.0000 138.0028 301.0000
  12.000   1.3113   0.02585   0.01122   0.0001   0.0179   1.0000 138.0440 301.0000
