  
       XFOIL         Version 6.99
  
 Calculated polar for: Repaneled_Airfoil                               
  
 1 1 Reynolds number fixed          Mach number fixed         
  
 xtrf =   1.000 (top)        1.000 (bottom)  
 Mach =   0.000     Re =     1.000 e 6     Ncrit =   9.000  9.000
  
   alpha    CL        CD       CDp       CM     Top_Xtr  Bot_Xtr  Top_Itr  Bot_Itr
  ------ -------- --------- --------- -------- -------- -------- -------- --------
  -5.000  -0.2487   0.00752   0.00143  -0.0808   0.9245   0.2255  27.5656 198.2333
  -4.915  -0.2391   0.00750   0.00142  -0.0807   0.9234   0.2293  27.7608 198.6572
  -4.829  -0.2294   0.00748   0.00140  -0.0807   0.9225   0.2324  27.9326 199.0161
  -4.744  -0.2199   0.00745   0.00140  -0.0807   0.9212   0.2351  28.1488 199.3127
  -4.658  -0.2103   0.00742   0.00140  -0.0806   0.9198   0.2376  28.3980 199.5993
  -4.573  -0.2007   0.00740   0.00138  -0.0806   0.9185   0.2398  28.6276 199.8512
  -4.487  -0.1910   0.00738   0.00136  -0.0805   0.9173   0.2417  28.8339 200.0562
  -4.402  -0.1814   0.00734   0.00135  -0.0805   0.9162   0.2435  29.0251 200.2536
  -4.317  -0.1719   0.00732   0.00135  -0.0805   0.9146   0.2453  29.2991 200.4612
  -4.231  -0.1622   0.00730   0.00134  -0.0804   0.9131   0.2472  29.5500 200.6727
  -4.146  -0.1525   0.00729   0.00132  -0.0804   0.9118   0.2491  29.7794 200.8783
  -4.060  -0.1428   0.00726   0.00130  -0.0804   0.9106   0.2508  29.9832 201.0728
  -3.975  -0.1333   0.00723   0.00130  -0.0803   0.9088   0.2526  30.2785 201.2676
  -3.889  -0.1237   0.00721   0.00129  -0.0803   0.9071   0.2544  30.5661 201.4608
  -3.804  -0.1140   0.00719   0.00127  -0.0802   0.9055   0.2560  30.8262 201.6395
  -3.719  -0.1043   0.00717   0.00125  -0.0802   0.9039   0.2575  31.0877 201.7978
  -3.633  -0.0947   0.00716   0.00124  -0.0802   0.9017   0.2588  31.4330 201.9398
  -3.548  -0.0851   0.00713   0.00122  -0.0801   0.8997   0.2601  31.7543 202.0877
  -3.462  -0.0755   0.00709   0.00120  -0.0801   0.8978   0.2616  32.0570 202.2452
  -3.377  -0.0660   0.00706   0.00119  -0.0800   0.8951   0.2630  32.4769 202.4031
  -3.292  -0.0564   0.00704   0.00117  -0.0800   0.8926   0.2645  32.8659 202.5594
  -3.206  -0.0468   0.00702   0.00115  -0.0799   0.8896   0.2659  33.3231 202.7145
  -3.121  -0.0372   0.00701   0.00113  -0.0799   0.8864   0.2673  33.8057 202.8654
  -2.950  -0.0181   0.00695   0.00108  -0.0797   0.8792   0.2702  34.8801 203.1809
  -2.864  -0.0086   0.00692   0.00107  -0.0797   0.8747   0.2718  35.5287 203.3481
  -2.779   0.0009   0.00690   0.00105  -0.0796   0.8697   0.2733  36.2423 203.5092
  -2.693   0.0103   0.00689   0.00102  -0.0795   0.8637   0.2747  37.0917 203.6651
  -2.608   0.0198   0.00688   0.00099  -0.0794   0.8558   0.2762  38.1789 203.8171
  -2.523   0.0290   0.00688   0.00095  -0.0793   0.8438   0.2775  39.7873 203.9590
  -2.437   0.0358   0.00694   0.00085  -0.0785   0.7905   0.2788  46.3803 204.0981
  -2.352   0.0371   0.00741   0.00086  -0.0767   0.6904   0.2797  57.3295 204.2003
  -2.266   0.0449   0.00752   0.00089  -0.0763   0.6730   0.2810  59.1132 204.3327
  -2.181   0.0535   0.00759   0.00091  -0.0761   0.6622   0.2822  60.2075 204.4578
  -2.095   0.0624   0.00764   0.00092  -0.0760   0.6535   0.2833  61.0803 204.5729
  -2.010   0.0715   0.00768   0.00093  -0.0759   0.6460   0.2843  61.8316 204.6792
  -1.925   0.0808   0.00771   0.00093  -0.0758   0.6394   0.2852  62.4861 204.7774
  -1.839   0.0900   0.00775   0.00093  -0.0757   0.6336   0.2860  63.0656 204.8681
  -1.754   0.0994   0.00777   0.00093  -0.0757   0.6280   0.2868  63.6193 204.9535
  -1.668   0.1087   0.00778   0.00092  -0.0756   0.6231   0.2877  64.0997 205.0454
  -1.583   0.1181   0.00778   0.00092  -0.0756   0.6183   0.2887  64.5775 205.1505
  -1.412   0.1369   0.00778   0.00091  -0.0755   0.6099   0.2906  65.4011 205.3458
  -1.327   0.1464   0.00779   0.00091  -0.0754   0.6060   0.2915  65.7809 205.4402
  -1.241   0.1558   0.00780   0.00090  -0.0754   0.6025   0.2924  66.1173 205.5325
  -1.156   0.1654   0.00780   0.00090  -0.0754   0.5989   0.2932  66.4721 205.6237
  -1.070   0.1749   0.00781   0.00089  -0.0754   0.5954   0.2941  66.8091 205.7176
  -0.985   0.1844   0.00783   0.00089  -0.0753   0.5922   0.2950  67.1224 205.8139
  -0.899   0.1940   0.00783   0.00088  -0.0753   0.5886   0.2959  67.4726 205.9094
  -0.814   0.2035   0.00785   0.00088  -0.0753   0.5851   0.2968  67.8117 205.9971
  -0.729   0.2130   0.00784   0.00087  -0.0752   0.5819   0.2978  68.1257 206.1079
  -0.643   0.2226   0.00783   0.00087  -0.0752   0.5784   0.2989  68.4565 206.2140
  -0.558   0.2320   0.00784   0.00086  -0.0752   0.5753   0.2999  68.7611 206.3171
  -0.472   0.2415   0.00784   0.00086  -0.0752   0.5725   0.3008  69.0274 206.4190
  -0.387   0.2512   0.00784   0.00085  -0.0752   0.5696   0.3018  69.3125 206.5235
  -0.301   0.2607   0.00784   0.00085  -0.0752   0.5666   0.3029  69.6026 206.6300
  -0.216   0.2702   0.00786   0.00084  -0.0751   0.5636   0.3039  69.8877 206.7375
  -0.131   0.2798   0.00787   0.00084  -0.0751   0.5605   0.3049  70.1837 206.8463
  -0.045   0.2894   0.00787   0.00083  -0.0751   0.5571   0.3060  70.5109 206.9551
   0.040   0.2989   0.00788   0.00083  -0.0751   0.5538   0.3071  70.8256 207.0741
   0.126   0.3083   0.00788   0.00082  -0.0751   0.5509   0.3084  71.1114 207.2024
   0.211   0.3180   0.00787   0.00082  -0.0751   0.5478   0.3097  71.4069 207.3353
   0.296   0.3275   0.00788   0.00082  -0.0751   0.5448   0.3110  71.6933 207.4732
   0.382   0.3369   0.00789   0.00081  -0.0750   0.5421   0.3124  71.9530 207.6151
   0.467   0.3466   0.00789   0.00081  -0.0750   0.5393   0.3138  72.2204 207.7611
   0.553   0.3562   0.00790   0.00081  -0.0750   0.5361   0.3152  72.5227 207.9046
   0.638   0.3656   0.00791   0.00080  -0.0750   0.5330   0.3166  72.8272 208.0472
   0.724   0.3751   0.00791   0.00080  -0.0750   0.5299   0.3181  73.1181 208.2066
   0.809   0.3847   0.00791   0.00080  -0.0750   0.5265   0.3199  73.4457 208.3845
   0.894   0.3942   0.00792   0.00079  -0.0749   0.5231   0.3218  73.7671 208.5774
   0.980   0.4036   0.00793   0.00079  -0.0749   0.5202   0.3238  74.0505 208.7833
   1.065   0.4133   0.00793   0.00079  -0.0749   0.5170   0.3258  74.3505 208.9955
   1.151   0.4228   0.00793   0.00079  -0.0749   0.5138   0.3282  74.6620 209.2340
   1.322   0.4417   0.00794   0.00078  -0.0748   0.5069   0.3337  75.3174 209.7965
   1.407   0.4512   0.00795   0.00078  -0.0748   0.5031   0.3368  75.6778 210.1065
   1.492   0.4605   0.00796   0.00078  -0.0748   0.4996   0.3404  76.0130 210.4694
   1.578   0.4701   0.00795   0.00078  -0.0748   0.4957   0.3446  76.3907 210.8913
   1.663   0.4795   0.00796   0.00077  -0.0748   0.4916   0.3493  76.7819 211.3666
   1.749   0.4889   0.00796   0.00077  -0.0747   0.4878   0.3553  77.1398 211.9628
   1.834   0.4984   0.00795   0.00077  -0.0747   0.4836   0.3629  77.5393 212.7245
   1.920   0.5076   0.00794   0.00077  -0.0747   0.4793   0.3732  77.9521 213.7392
   2.005   0.5170   0.00791   0.00077  -0.0747   0.4745   0.3888  78.4114 215.2758
   2.091   0.5260   0.00785   0.00076  -0.0746   0.4692   0.4167  78.9166 217.9890
   2.176   0.5346   0.00758   0.00075  -0.0746   0.4639   0.5115  79.4236 227.0852
   2.261   0.5420   0.00726   0.00083  -0.0744   0.4584   0.6623  79.9492 241.7811
   2.347   0.5512   0.00728   0.00087  -0.0743   0.4523   0.6846  80.5412 244.0483
   2.432   0.5603   0.00733   0.00089  -0.0742   0.4457   0.6962  81.1724 245.2515
   2.518   0.5695   0.00739   0.00091  -0.0741   0.4379   0.7044  81.9241 246.1045
   2.603   0.5786   0.00745   0.00093  -0.0740   0.4286   0.7108  82.8209 246.7742
   2.688   0.5875   0.00753   0.00095  -0.0738   0.4177   0.7158  83.8731 247.3018
   2.774   0.5964   0.00762   0.00097  -0.0737   0.4052   0.7205  85.0780 247.8030
   2.859   0.6051   0.00772   0.00099  -0.0735   0.3887   0.7242  86.6901 248.1996
   2.945   0.6133   0.00787   0.00103  -0.0733   0.3662   0.7277  88.9105 248.5755
   3.030   0.6192   0.00828   0.00112  -0.0727   0.3040   0.7310  95.2110 248.9224
   3.116   0.6226   0.00900   0.00138  -0.0718   0.2125   0.7333 105.2189 249.1724
   3.201   0.6309   0.00916   0.00146  -0.0716   0.1990   0.7360 106.8245 249.4685
   3.286   0.6397   0.00929   0.00152  -0.0715   0.1903   0.7389 107.8720 249.7811
   3.372   0.6486   0.00939   0.00156  -0.0714   0.1833   0.7415 108.7325 250.0672
   3.457   0.6576   0.00947   0.00160  -0.0713   0.1772   0.7438 109.4820 250.3181
   3.543   0.6666   0.00956   0.00164  -0.0712   0.1718   0.7463 110.1670 250.5919
   3.628   0.6758   0.00964   0.00167  -0.0711   0.1667   0.7489 110.8092 250.8706
   3.714   0.6849   0.00971   0.00170  -0.0710   0.1624   0.7510 111.3645 251.1096
   3.799   0.6939   0.00978   0.00174  -0.0709   0.1582   0.7530 111.9149 251.3279
   3.884   0.7031   0.00984   0.00176  -0.0709   0.1543   0.7551 112.4285 251.5612
   3.970   0.7122   0.00991   0.00179  -0.0708   0.1504   0.7572 112.9393 251.7914
   4.141   0.7305   0.01005   0.00185  -0.0706   0.1431   0.7607 113.9317 252.1892
   4.226   0.7396   0.01010   0.00187  -0.0706   0.1394   0.7624 114.4378 252.3782
   4.397   0.7578   0.01024   0.00192  -0.0704   0.1318   0.7659 115.4994 252.7653
   4.482   0.7669   0.01033   0.00195  -0.0703   0.1280   0.7676 116.0352 252.9563
   4.568   0.7759   0.01038   0.00198  -0.0703   0.1244   0.7690 116.5577 253.1191
   4.653   0.7849   0.01046   0.00201  -0.0702   0.1210   0.7705 117.0489 253.2844
   4.739   0.7940   0.01052   0.00203  -0.0701   0.1176   0.7720 117.5448 253.4608
   4.824   0.8029   0.01060   0.00206  -0.0700   0.1144   0.7737 118.0223 253.6501
   4.910   0.8120   0.01066   0.00209  -0.0699   0.1113   0.7754 118.5012 253.8439
   5.080   0.8299   0.01080   0.00215  -0.0697   0.1053   0.7783 119.4206 254.1849
   5.166   0.8387   0.01088   0.00218  -0.0696   0.1023   0.7798 119.8822 254.3529
   5.251   0.8477   0.01095   0.00221  -0.0695   0.0995   0.7814 120.3291 254.5352
   5.337   0.8566   0.01103   0.00225  -0.0694   0.0964   0.7830 120.8222 254.7263
   5.422   0.8655   0.01111   0.00228  -0.0693   0.0936   0.7847 121.2912 254.9191
   5.508   0.8743   0.01119   0.00231  -0.0692   0.0905   0.7861 121.7999 255.0877
   5.593   0.8831   0.01126   0.00235  -0.0691   0.0877   0.7875 122.2655 255.2484
   5.678   0.8918   0.01135   0.00238  -0.0690   0.0849   0.7889 122.7468 255.4163
   5.764   0.9005   0.01143   0.00242  -0.0688   0.0823   0.7904 123.1833 255.5873
   5.849   0.9094   0.01151   0.00246  -0.0687   0.0797   0.7918 123.6485 255.7555
   5.935   0.9180   0.01161   0.00250  -0.0686   0.0772   0.7932 124.0846 255.9179
   6.020   0.9268   0.01168   0.00253  -0.0685   0.0747   0.7945 124.5376 256.0649
   6.106   0.9353   0.01178   0.00258  -0.0683   0.0723   0.7957 124.9744 256.2118
   6.191   0.9441   0.01185   0.00261  -0.0682   0.0702   0.7970 125.3741 256.3705
   6.276   0.9526   0.01195   0.00266  -0.0680   0.0680   0.7984 125.7771 256.5380
   6.362   0.9612   0.01204   0.00270  -0.0679   0.0661   0.7999 126.1412 256.7081
   6.447   0.9700   0.01212   0.00274  -0.0678   0.0641   0.8013 126.5279 256.8757
   6.533   0.9784   0.01223   0.00279  -0.0676   0.0622   0.8026 126.9025 257.0305
   6.618   0.9870   0.01231   0.00284  -0.0675   0.0605   0.8037 127.2419 257.1701
   6.704   0.9955   0.01239   0.00288  -0.0673   0.0587   0.8050 127.6026 257.3272
   6.789   1.0038   0.01250   0.00293  -0.0671   0.0570   0.8064 127.9456 257.4977
   6.874   1.0124   0.01259   0.00298  -0.0670   0.0556   0.8079 128.2555 257.6765
   6.960   1.0208   0.01268   0.00303  -0.0668   0.0540   0.8095 128.5812 257.8621
   7.045   1.0291   0.01280   0.00308  -0.0666   0.0525   0.8110 128.8909 258.0446
   7.131   1.0375   0.01289   0.00314  -0.0664   0.0512   0.8124 129.1719 258.2256
   7.216   1.0459   0.01297   0.00318  -0.0663   0.0498   0.8141 129.4764 258.4273
   7.301   1.0541   0.01308   0.00324  -0.0661   0.0485   0.8158 129.7764 258.6399
   7.387   1.0622   0.01320   0.00330  -0.0658   0.0472   0.8176 130.0558 258.8593
   7.472   1.0707   0.01328   0.00335  -0.0657   0.0460   0.8193 130.3328 259.0725
   7.558   1.0789   0.01338   0.00340  -0.0655   0.0448   0.8211 130.6200 259.2969
   7.643   1.0868   0.01350   0.00346  -0.0652   0.0436   0.8231 130.8980 259.5499
   7.729   1.0950   0.01360   0.00352  -0.0650   0.0425   0.8254 131.1490 259.8276
   7.814   1.1032   0.01369   0.00357  -0.0648   0.0414   0.8277 131.4084 260.1197
   7.899   1.1112   0.01380   0.00363  -0.0646   0.0404   0.8302 131.6609 260.4444
   7.985   1.1189   0.01392   0.00370  -0.0643   0.0394   0.8331 131.9021 260.8159
   8.070   1.1268   0.01402   0.00377  -0.0641   0.0385   0.8363 132.1158 261.2220
   8.156   1.1349   0.01410   0.00382  -0.0638   0.0376   0.8400 132.3351 261.7070
   8.241   1.1428   0.01420   0.00388  -0.0636   0.0367   0.8446 132.5605 262.3004
   8.327   1.1504   0.01430   0.00394  -0.0633   0.0359   0.8507 132.7732 263.1199
   8.412   1.1574   0.01441   0.00402  -0.0628   0.0351   0.8606 132.9816 264.4550
   8.498   1.1638   0.01440   0.00408  -0.0622   0.0345   0.8882 133.1453 268.4470
   8.583   1.1736   0.01438   0.00413  -0.0623   0.0337   1.0000 133.3601 301.0000
   8.668   1.1815   0.01451   0.00419  -0.0621   0.0329   1.0000 133.5525 301.0000
   8.754   1.1893   0.01465   0.00426  -0.0618   0.0323   1.0000 133.7339 301.0000
   8.839   1.1967   0.01481   0.00434  -0.0615   0.0316   1.0000 133.9158 301.0000
   8.925   1.2043   0.01495   0.00442  -0.0612   0.0310   1.0000 134.0742 301.0000
   9.010   1.2122   0.01507   0.00448  -0.0610   0.0305   1.0000 134.2242 301.0000
   9.095   1.2199   0.01519   0.00455  -0.0607   0.0299   1.0000 134.3813 301.0000
   9.181   1.2275   0.01533   0.00462  -0.0604   0.0294   1.0000 134.5372 301.0000
   9.266   1.2349   0.01548   0.00470  -0.0601   0.0288   1.0000 134.6862 301.0000
   9.352   1.2421   0.01565   0.00479  -0.0598   0.0283   1.0000 134.8336 301.0000
   9.437   1.2487   0.01586   0.00490  -0.0593   0.0277   1.0000 134.9943 301.0000
   9.523   1.2564   0.01597   0.00496  -0.0591   0.0274   1.0000 135.1018 301.0000
   9.608   1.2640   0.01609   0.00503  -0.0588   0.0270   1.0000 135.2259 301.0000
   9.694   1.2715   0.01622   0.00510  -0.0585   0.0265   1.0000 135.3573 301.0000
   9.779   1.2788   0.01636   0.00518  -0.0582   0.0261   1.0000 135.4878 301.0000
   9.864   1.2860   0.01651   0.00526  -0.0578   0.0257   1.0000 135.6149 301.0000
   9.950   1.2929   0.01667   0.00534  -0.0575   0.0253   1.0000 135.7359 301.0000
  10.035   1.2996   0.01685   0.00543  -0.0570   0.0249   1.0000 135.8549 301.0000
  10.121   1.3057   0.01707   0.00555  -0.0565   0.0244   1.0000 135.9813 301.0000
  10.206   1.3127   0.01722   0.00563  -0.0561   0.0242   1.0000 136.0709 301.0000
  10.291   1.3198   0.01736   0.00571  -0.0558   0.0239   1.0000 136.1639 301.0000
  10.377   1.3266   0.01750   0.00579  -0.0554   0.0236   1.0000 136.2613 301.0000
  10.462   1.3330   0.01765   0.00587  -0.0549   0.0233   1.0000 136.3579 301.0000
  10.548   1.3393   0.01780   0.00595  -0.0544   0.0230   1.0000 136.4522 301.0000
  10.633   1.3454   0.01796   0.00603  -0.0538   0.0227   1.0000 136.5451 301.0000
  10.719   1.3514   0.01813   0.00612  -0.0533   0.0224   1.0000 136.6348 301.0000
  10.804   1.3572   0.01831   0.00622  -0.0527   0.0221   1.0000 136.7227 301.0000
  10.889   1.3627   0.01851   0.00632  -0.0521   0.0218   1.0000 136.8119 301.0000
  10.975   1.3677   0.01874   0.00645  -0.0514   0.0215   1.0000 136.9066 301.0000
  11.060   1.3722   0.01901   0.00660  -0.0507   0.0212   1.0000 137.0040 301.0000
  11.146   1.3784   0.01917   0.00669  -0.0502   0.0211   1.0000 137.0593 301.0000
  11.231   1.3844   0.01933   0.00679  -0.0497   0.0209   1.0000 137.1227 301.0000
  11.317   1.3902   0.01951   0.00689  -0.0491   0.0207   1.0000 137.1916 301.0000
  11.402   1.3960   0.01969   0.00699  -0.0486   0.0205   1.0000 137.2639 301.0000
  11.487   1.4017   0.01988   0.00710  -0.0480   0.0203   1.0000 137.3373 301.0000
  11.573   1.4073   0.02007   0.00721  -0.0475   0.0201   1.0000 137.4108 301.0000
  11.658   1.4128   0.02027   0.00732  -0.0469   0.0198   1.0000 137.4830 301.0000
  11.744   1.4182   0.02048   0.00744  -0.0463   0.0196   1.0000 137.5542 301.0000
  11.829   1.4235   0.02069   0.00756  -0.0458   0.0194   1.0000 137.6250 301.0000
  11.915   1.4285   0.02092   0.00769  -0.0452   0.0192   1.0000 137.6950 301.0000
  12.000   1.4333   0.02117   0.00784  -0.0445   0.0190   1.0000 137.7655 301.0000
