  
       XFOIL         Version 6.99
  
 Calculated polar for: Repaneled_Airfoil                               
  
 1 1 Reynolds number fixed          Mach number fixed         
  
 xtrf =   1.000 (top)        1.000 (bottom)  
 Mach =   0.000     Re =     1.000 e 6     Ncrit =   9.000  9.000
  
   alpha    CL        CD       CDp       CM     Top_Xtr  Bot_Xtr  Top_Itr  Bot_Itr
  ------ -------- --------- --------- -------- -------- -------- -------- --------
  -5.000  -0.3327   0.00933   0.00235  -0.0510   0.9694   0.0663  17.7717 175.8488
  -4.915  -0.3215   0.00924   0.00229  -0.0514   0.9689   0.0681  17.9167 176.1878
  -4.829  -0.3121   0.00917   0.00225  -0.0513   0.9678   0.0699  18.2095 176.5192
  -4.744  -0.3026   0.00910   0.00221  -0.0513   0.9667   0.0717  18.5085 176.8670
  -4.658  -0.2922   0.00902   0.00216  -0.0514   0.9659   0.0736  18.7222 177.2216
  -4.573  -0.2816   0.00893   0.00212  -0.0516   0.9652   0.0758  18.8982 177.6192
  -4.487  -0.2720   0.00888   0.00208  -0.0516   0.9642   0.0779  19.1674 177.9915
  -4.402  -0.2630   0.00880   0.00204  -0.0515   0.9629   0.0800  19.4843 178.3663
  -4.317  -0.2531   0.00873   0.00200  -0.0515   0.9620   0.0824  19.7158 178.7877
  -4.231  -0.2428   0.00866   0.00195  -0.0516   0.9613   0.0848  19.9114 179.1886
  -4.146  -0.2339   0.00859   0.00192  -0.0515   0.9599   0.0872  20.2426 179.5976
  -3.975  -0.2148   0.00844   0.00183  -0.0514   0.9575   0.0922  20.8307 180.4369
  -3.889  -0.2053   0.00838   0.00179  -0.0513   0.9563   0.0949  21.1137 180.8906
  -3.804  -0.1966   0.00831   0.00176  -0.0511   0.9546   0.0976  21.5015 181.3194
  -3.719  -0.1870   0.00824   0.00171  -0.0510   0.9533   0.1007  21.7986 181.8098
  -3.633  -0.1775   0.00817   0.00167  -0.0510   0.9519   0.1036  22.1011 182.2670
  -3.548  -0.1688   0.00811   0.00163  -0.0507   0.9500   0.1066  22.5234 182.7439
  -3.462  -0.1593   0.00804   0.00159  -0.0507   0.9485   0.1097  22.8488 183.2143
  -3.377  -0.1503   0.00797   0.00155  -0.0505   0.9467   0.1130  23.2368 183.7219
  -3.292  -0.1413   0.00790   0.00151  -0.0503   0.9447   0.1164  23.6571 184.2218
  -3.206  -0.1317   0.00782   0.00146  -0.0503   0.9431   0.1203  23.9869 184.7976
  -3.121  -0.1231   0.00776   0.00142  -0.0500   0.9407   0.1241  24.4786 185.3568
  -2.950  -0.1047   0.00761   0.00133  -0.0498   0.9365   0.1335  25.3139 186.6977
  -2.864  -0.0956   0.00753   0.00129  -0.0496   0.9342   0.1391  25.7623 187.4812
  -2.779  -0.0865   0.00744   0.00124  -0.0495   0.9319   0.1460  26.2050 188.4258
  -2.693  -0.0776   0.00734   0.00119  -0.0493   0.9291   0.1555  26.7198 189.6832
  -2.608  -0.0687   0.00721   0.00112  -0.0492   0.9263   0.1713  27.2418 191.7298
  -2.523  -0.0611   0.00682   0.00099  -0.0490   0.9230   0.2364  27.8381 199.4638
  -2.437  -0.0550   0.00620   0.00083  -0.0487   0.9193   0.3619  28.4947 212.6185
  -2.352  -0.0467   0.00594   0.00076  -0.0486   0.9152   0.4119  29.2001 217.5273
  -2.266  -0.0381   0.00576   0.00071  -0.0484   0.9104   0.4472  30.0135 220.9393
  -2.181  -0.0293   0.00562   0.00067  -0.0482   0.9046   0.4744  30.9805 223.5452
  -2.095  -0.0205   0.00550   0.00063  -0.0480   0.8971   0.4969  32.1670 225.6925
  -2.010  -0.0116   0.00541   0.00059  -0.0478   0.8862   0.5164  33.8455 227.5538
  -1.925  -0.0042   0.00538   0.00044  -0.0471   0.8264   0.5325  42.0294 229.0893
  -1.839  -0.0056   0.00597   0.00044  -0.0446   0.6846   0.5413  57.9304 229.9331
  -1.754   0.0013   0.00611   0.00047  -0.0441   0.6488   0.5536  61.5611 231.1136
  -1.668   0.0091   0.00619   0.00049  -0.0437   0.6234   0.5652  64.0814 232.2306
  -1.583   0.0174   0.00625   0.00051  -0.0435   0.6021   0.5761  66.1651 233.2823
  -1.412   0.0346   0.00636   0.00053  -0.0431   0.5660   0.5954  69.6693 235.1516
  -1.241   0.0522   0.00644   0.00056  -0.0427   0.5354   0.6131  72.6027 236.8879
  -1.156   0.0612   0.00648   0.00057  -0.0426   0.5218   0.6210  73.9061 237.6569
  -1.070   0.0702   0.00652   0.00058  -0.0425   0.5092   0.6278  75.1127 238.3314
  -0.985   0.0794   0.00657   0.00059  -0.0424   0.4970   0.6341  76.2703 238.9556
  -0.899   0.0886   0.00660   0.00060  -0.0423   0.4856   0.6394  77.3599 239.4860
  -0.814   0.0978   0.00665   0.00061  -0.0422   0.4749   0.6450  78.3863 240.0431
  -0.729   0.1071   0.00668   0.00062  -0.0421   0.4647   0.6503  79.3565 240.5695
  -0.643   0.1164   0.00673   0.00063  -0.0420   0.4550   0.6555  80.2890 241.0903
  -0.558   0.1257   0.00676   0.00064  -0.0419   0.4457   0.6604  81.1833 241.5877
  -0.472   0.1350   0.00681   0.00066  -0.0419   0.4367   0.6655  82.0461 242.0963
  -0.387   0.1443   0.00684   0.00067  -0.0418   0.4280   0.6705  82.8902 242.6057
  -0.301   0.1537   0.00688   0.00068  -0.0417   0.4195   0.6754  83.7087 243.1038
  -0.216   0.1631   0.00692   0.00070  -0.0417   0.4114   0.6796  84.4918 243.5386
  -0.131   0.1725   0.00697   0.00071  -0.0416   0.4036   0.6837  85.2497 243.9509
   0.040   0.1914   0.00705   0.00074  -0.0415   0.3885   0.6900  86.7227 244.6058
   0.126   0.2009   0.00709   0.00074  -0.0415   0.3817   0.6937  87.3935 244.9901
   0.211   0.2103   0.00713   0.00076  -0.0414   0.3752   0.6967  88.0331 245.2964
   0.296   0.2198   0.00717   0.00078  -0.0414   0.3688   0.7000  88.6634 245.6444
   0.467   0.2388   0.00725   0.00080  -0.0413   0.3574   0.7062  89.7910 246.2848
   0.553   0.2483   0.00729   0.00082  -0.0413   0.3524   0.7092  90.2948 246.6023
   0.638   0.2579   0.00733   0.00083  -0.0412   0.3473   0.7123  90.8084 246.9278
   0.724   0.2674   0.00737   0.00084  -0.0412   0.3426   0.7147  91.2745 247.1875
   0.809   0.2769   0.00740   0.00086  -0.0412   0.3379   0.7173  91.7524 247.4650
   0.894   0.2864   0.00744   0.00087  -0.0411   0.3337   0.7203  92.1786 247.7836
   0.980   0.2960   0.00748   0.00089  -0.0411   0.3294   0.7232  92.6093 248.0827
   1.151   0.3150   0.00755   0.00092  -0.0410   0.3218   0.7284  93.3861 248.6462
   1.236   0.3246   0.00760   0.00094  -0.0410   0.3180   0.7314  93.7701 248.9632
   1.322   0.3341   0.00763   0.00096  -0.0410   0.3147   0.7336  94.1120 249.1993
   1.407   0.3437   0.00766   0.00097  -0.0409   0.3113   0.7360  94.4658 249.4650
   1.492   0.3532   0.00771   0.00099  -0.0409   0.3080   0.7387  94.8056 249.7601
   1.578   0.3628   0.00775   0.00100  -0.0409   0.3051   0.7413  95.1059 250.0381
   1.663   0.3724   0.00777   0.00102  -0.0408   0.3022   0.7432  95.4081 250.2472
   1.749   0.3819   0.00781   0.00104  -0.0408   0.2993   0.7452  95.7047 250.4656
   1.834   0.3914   0.00786   0.00105  -0.0408   0.2967   0.7472  95.9774 250.6832
   1.920   0.4011   0.00789   0.00107  -0.0408   0.2942   0.7491  96.2442 250.8977
   2.005   0.4107   0.00792   0.00108  -0.0408   0.2915   0.7508  96.5250 251.0787
   2.091   0.4202   0.00796   0.00110  -0.0407   0.2889   0.7522  96.7964 251.2387
   2.176   0.4297   0.00800   0.00111  -0.0407   0.2865   0.7538  97.0468 251.4130
   2.261   0.4394   0.00803   0.00113  -0.0407   0.2841   0.7554  97.3027 251.5982
   2.347   0.4490   0.00806   0.00114  -0.0407   0.2816   0.7572  97.5639 251.7873
   2.432   0.4586   0.00811   0.00115  -0.0407   0.2793   0.7589  97.8107 251.9758
   2.518   0.4680   0.00815   0.00117  -0.0406   0.2772   0.7601  98.0340 252.1168
   2.603   0.4777   0.00817   0.00118  -0.0406   0.2752   0.7614  98.2511 252.2653
   2.688   0.4873   0.00820   0.00120  -0.0406   0.2731   0.7629  98.4734 252.4314
   2.774   0.4968   0.00824   0.00122  -0.0405   0.2711   0.7645  98.6905 252.6150
   2.859   0.5063   0.00829   0.00123  -0.0405   0.2692   0.7663  98.8968 252.8110
   3.030   0.5255   0.00835   0.00126  -0.0405   0.2653   0.7693  99.3096 253.1517
   3.116   0.5350   0.00838   0.00128  -0.0404   0.2633   0.7707  99.5351 253.3082
   3.201   0.5445   0.00842   0.00130  -0.0404   0.2612   0.7722  99.7539 253.4773
   3.286   0.5540   0.00848   0.00131  -0.0404   0.2593   0.7737  99.9603 253.6538
   3.372   0.5636   0.00851   0.00133  -0.0404   0.2575   0.7753 100.1589 253.8327
   3.457   0.5733   0.00854   0.00134  -0.0404   0.2556   0.7768 100.3733 254.0103
   3.543   0.5828   0.00857   0.00135  -0.0403   0.2536   0.7780 100.5839 254.1437
   3.628   0.5922   0.00861   0.00137  -0.0403   0.2518   0.7793 100.7835 254.2906
   3.714   0.6016   0.00866   0.00139  -0.0402   0.2500   0.7807 100.9847 254.4553
   3.799   0.6112   0.00869   0.00140  -0.0402   0.2481   0.7822 101.1975 254.6342
   3.884   0.6208   0.00872   0.00142  -0.0402   0.2459   0.7839 101.4420 254.8225
   3.970   0.6304   0.00877   0.00143  -0.0402   0.2436   0.7855 101.6902 255.0096
   4.055   0.6397   0.00881   0.00144  -0.0401   0.2415   0.7867 101.9304 255.1487
   4.141   0.6492   0.00884   0.00146  -0.0401   0.2394   0.7879 102.1619 255.2981
   4.226   0.6588   0.00887   0.00147  -0.0401   0.2372   0.7893 102.4028 255.4578
   4.312   0.6683   0.00891   0.00149  -0.0401   0.2352   0.7907 102.6352 255.6237
   4.397   0.6777   0.00896   0.00150  -0.0400   0.2332   0.7922 102.8572 255.7966
   4.482   0.6872   0.00901   0.00151  -0.0400   0.2312   0.7937 103.0839 255.9750
   4.568   0.6967   0.00903   0.00152  -0.0400   0.2289   0.7949 103.3457 256.1145
   4.653   0.7062   0.00907   0.00154  -0.0399   0.2265   0.7961 103.6222 256.2599
   4.739   0.7155   0.00912   0.00155  -0.0399   0.2242   0.7975 103.8832 256.4234
   4.824   0.7250   0.00916   0.00157  -0.0399   0.2221   0.7990 104.1212 256.6009
   4.910   0.7345   0.00919   0.00158  -0.0398   0.2200   0.8006 104.3599 256.7901
   4.995   0.7440   0.00924   0.00159  -0.0398   0.2180   0.8022 104.5967 256.9815
   5.080   0.7533   0.00928   0.00161  -0.0398   0.2160   0.8034 104.8236 257.1265
   5.166   0.7626   0.00934   0.00163  -0.0397   0.2141   0.8046 105.0416 257.2765
   5.251   0.7721   0.00936   0.00164  -0.0397   0.2122   0.8060 105.2677 257.4377
   5.337   0.7816   0.00940   0.00166  -0.0396   0.2101   0.8074 105.5151 257.6065
   5.422   0.7909   0.00945   0.00167  -0.0396   0.2080   0.8088 105.7659 257.7856
   5.508   0.8002   0.00952   0.00169  -0.0396   0.2059   0.8104 106.0081 257.9716
   5.593   0.8097   0.00954   0.00170  -0.0395   0.2038   0.8116 106.2512 258.1199
   5.678   0.8191   0.00958   0.00172  -0.0395   0.2016   0.8128 106.5179 258.2748
   5.764   0.8284   0.00963   0.00173  -0.0394   0.1994   0.8142 106.7811 258.4466
   5.849   0.8376   0.00968   0.00175  -0.0394   0.1973   0.8158 107.0309 258.6349
   5.935   0.8471   0.00972   0.00177  -0.0393   0.1952   0.8174 107.2859 258.8332
   6.020   0.8565   0.00977   0.00178  -0.0393   0.1929   0.8189 107.5600 259.0251
   6.106   0.8656   0.00982   0.00180  -0.0392   0.1906   0.8202 107.8391 259.1824
   6.191   0.8749   0.00987   0.00182  -0.0392   0.1883   0.8216 108.1168 259.3539
   6.276   0.8842   0.00992   0.00184  -0.0391   0.1857   0.8231 108.4432 259.5381
   6.362   0.8934   0.00998   0.00186  -0.0390   0.1828   0.8246 108.7991 259.7305
   6.447   0.9027   0.01004   0.00187  -0.0390   0.1800   0.8262 109.1423 259.9305
   6.533   0.9120   0.01008   0.00189  -0.0389   0.1767   0.8276 109.5494 260.1032
   6.704   0.9302   0.01020   0.00193  -0.0388   0.1703   0.8304 110.3665 260.4690
   6.789   0.9393   0.01028   0.00196  -0.0387   0.1667   0.8321 110.8148 260.6791
   6.874   0.9484   0.01035   0.00198  -0.0386   0.1633   0.8338 111.2604 260.9004
   6.960   0.9574   0.01042   0.00201  -0.0385   0.1591   0.8353 111.7978 261.0975
   7.045   0.9664   0.01049   0.00204  -0.0384   0.1550   0.8369 112.3379 261.2924
   7.216   0.9842   0.01067   0.00210  -0.0382   0.1452   0.8403 113.6499 261.7452
   7.301   0.9930   0.01077   0.00215  -0.0381   0.1401   0.8422 114.3506 261.9912
   7.387   1.0016   0.01088   0.00219  -0.0380   0.1341   0.8438 115.1861 262.1937
   7.472   1.0101   0.01101   0.00225  -0.0378   0.1268   0.8455 116.2120 262.4175
   7.558   1.0184   0.01116   0.00232  -0.0376   0.1199   0.8474 117.2230 262.6695
   7.643   1.0268   0.01132   0.00239  -0.0375   0.1121   0.8494 118.3861 262.9385
   7.729   1.0348   0.01149   0.00249  -0.0372   0.1043   0.8512 119.5825 263.1851
   7.814   1.0429   0.01166   0.00258  -0.0370   0.0972   0.8532 120.7020 263.4545
   7.899   1.0509   0.01184   0.00268  -0.0368   0.0901   0.8555 121.8680 263.7567
   7.985   1.0589   0.01203   0.00279  -0.0366   0.0840   0.8578 122.9106 264.0710
   8.070   1.0669   0.01219   0.00288  -0.0363   0.0782   0.8601 123.9188 264.3848
   8.156   1.0750   0.01236   0.00298  -0.0361   0.0729   0.8627 124.8837 264.7468
   8.241   1.0831   0.01252   0.00308  -0.0359   0.0684   0.8654 125.7148 265.1211
   8.327   1.0911   0.01266   0.00316  -0.0356   0.0645   0.8682 126.4663 265.5262
   8.412   1.0992   0.01281   0.00326  -0.0354   0.0608   0.8715 127.1925 265.9882
   8.498   1.1072   0.01295   0.00335  -0.0352   0.0575   0.8749 127.8632 266.4779
   8.668   1.1231   0.01322   0.00352  -0.0346   0.0523   0.8836 128.9415 267.7465
   8.754   1.1311   0.01332   0.00359  -0.0343   0.0502   0.8893 129.4143 268.6090
   8.839   1.1386   0.01343   0.00368  -0.0340   0.0480   0.8971 129.8907 269.8175
   8.925   1.1457   0.01351   0.00375  -0.0335   0.0462   0.9102 130.2887 271.9338
   9.010   1.1522   0.01354   0.00381  -0.0328   0.0445   0.9481 130.6826 279.0487
   9.095   1.1635   0.01369   0.00390  -0.0333   0.0426   1.0000 131.1227 301.0000
   9.181   1.1720   0.01383   0.00398  -0.0331   0.0412   1.0000 131.4792 301.0000
   9.266   1.1802   0.01399   0.00407  -0.0330   0.0398   1.0000 131.8163 301.0000
   9.352   1.1885   0.01414   0.00416  -0.0328   0.0386   1.0000 132.1102 301.0000
   9.437   1.1970   0.01426   0.00423  -0.0327   0.0374   1.0000 132.4033 301.0000
   9.523   1.2052   0.01441   0.00431  -0.0325   0.0362   1.0000 132.6965 301.0000
   9.608   1.2132   0.01458   0.00441  -0.0323   0.0352   1.0000 132.9686 301.0000
   9.694   1.2216   0.01471   0.00449  -0.0321   0.0343   1.0000 133.1963 301.0000
   9.779   1.2299   0.01485   0.00457  -0.0319   0.0334   1.0000 133.4334 301.0000
   9.864   1.2379   0.01500   0.00465  -0.0317   0.0326   1.0000 133.6637 301.0000
   9.950   1.2458   0.01517   0.00476  -0.0315   0.0317   1.0000 133.8858 301.0000
  10.035   1.2538   0.01533   0.00485  -0.0313   0.0310   1.0000 134.0805 301.0000
  10.121   1.2620   0.01546   0.00493  -0.0311   0.0304   1.0000 134.2637 301.0000
  10.206   1.2700   0.01561   0.00501  -0.0309   0.0297   1.0000 134.4532 301.0000
  10.291   1.2779   0.01577   0.00511  -0.0306   0.0290   1.0000 134.6371 301.0000
  10.377   1.2855   0.01595   0.00522  -0.0304   0.0284   1.0000 134.8151 301.0000
  10.462   1.2928   0.01616   0.00535  -0.0300   0.0277   1.0000 135.0026 301.0000
  10.548   1.3010   0.01628   0.00542  -0.0299   0.0273   1.0000 135.1349 301.0000
  10.633   1.3090   0.01642   0.00550  -0.0296   0.0268   1.0000 135.2879 301.0000
  10.719   1.3168   0.01657   0.00559  -0.0294   0.0263   1.0000 135.4473 301.0000
  10.804   1.3244   0.01673   0.00568  -0.0291   0.0257   1.0000 135.6017 301.0000
  10.889   1.3319   0.01691   0.00579  -0.0288   0.0253   1.0000 135.7479 301.0000
  10.975   1.3391   0.01710   0.00591  -0.0285   0.0248   1.0000 135.8921 301.0000
  11.060   1.3462   0.01731   0.00604  -0.0282   0.0243   1.0000 136.0283 301.0000
  11.146   1.3540   0.01745   0.00612  -0.0279   0.0240   1.0000 136.1354 301.0000
  11.231   1.3616   0.01760   0.00621  -0.0276   0.0236   1.0000 136.2515 301.0000
  11.317   1.3690   0.01776   0.00631  -0.0273   0.0233   1.0000 136.3698 301.0000
  11.402   1.3763   0.01793   0.00641  -0.0270   0.0229   1.0000 136.4876 301.0000
  11.487   1.3835   0.01811   0.00652  -0.0267   0.0225   1.0000 136.6041 301.0000
  11.573   1.3905   0.01831   0.00664  -0.0263   0.0222   1.0000 136.7205 301.0000
  11.658   1.3972   0.01852   0.00677  -0.0259   0.0218   1.0000 136.8419 301.0000
  11.744   1.4033   0.01879   0.00694  -0.0255   0.0214   1.0000 136.9757 301.0000
  11.829   1.4103   0.01896   0.00704  -0.0251   0.0211   1.0000 137.0653 301.0000
  11.915   1.4175   0.01912   0.00714  -0.0248   0.0208   1.0000 137.1576 301.0000
  12.000   1.4246   0.01928   0.00724  -0.0244   0.0205   1.0000 137.2585 301.0000
