  
       XFOIL         Version 6.99
  
 Calculated polar for: Repaneled_Airfoil                               
  
 1 1 Reynolds number fixed          Mach number fixed         
  
 xtrf =   1.000 (top)        1.000 (bottom)  
 Mach =   0.000     Re =     1.000 e 6     Ncrit =   9.000  9.000
  
   alpha    CL        CD       CDp       CM     Top_Xtr  Bot_Xtr  Top_Itr  Bot_Itr
  ------ -------- --------- --------- -------- -------- -------- -------- --------
  -5.000  -0.1067   0.00849   0.00138  -0.0527   0.7426   0.1516  51.6476 189.0093
  -4.915  -0.0970   0.00844   0.00136  -0.0527   0.7418   0.1560  51.7379 189.5887
  -4.829  -0.0872   0.00841   0.00135  -0.0527   0.7409   0.1601  51.8256 190.1228
  -4.744  -0.0775   0.00837   0.00133  -0.0527   0.7402   0.1643  51.9090 190.6672
  -4.658  -0.0677   0.00835   0.00131  -0.0528   0.7395   0.1682  51.9877 191.1689
  -4.573  -0.0579   0.00830   0.00130  -0.0528   0.7386   0.1723  52.0759 191.6948
  -4.487  -0.0481   0.00825   0.00128  -0.0528   0.7378   0.1761  52.1672 192.1808
  -4.402  -0.0384   0.00821   0.00127  -0.0529   0.7369   0.1802  52.2589 192.6922
  -4.317  -0.0286   0.00817   0.00125  -0.0529   0.7361   0.1841  52.3507 193.1688
  -4.231  -0.0188   0.00812   0.00123  -0.0529   0.7352   0.1883  52.4420 193.6938
  -4.146  -0.0090   0.00807   0.00121  -0.0529   0.7344   0.1925  52.5305 194.2043
  -4.060   0.0007   0.00803   0.00119  -0.0530   0.7336   0.1972  52.6145 194.7636
  -3.975   0.0105   0.00798   0.00117  -0.0530   0.7329   0.2018  52.6980 195.3147
  -3.889   0.0202   0.00792   0.00114  -0.0530   0.7321   0.2071  52.7826 195.9525
  -3.804   0.0299   0.00786   0.00110  -0.0530   0.7313   0.2137  52.8682 196.7265
  -3.719   0.0394   0.00778   0.00106  -0.0530   0.7305   0.2229  52.9559 197.7915
  -3.633   0.0487   0.00765   0.00101  -0.0530   0.7295   0.2420  53.0589 199.9529
  -3.548   0.0566   0.00726   0.00096  -0.0529   0.7284   0.3293  53.1799 209.2191
  -3.462   0.0659   0.00714   0.00096  -0.0529   0.7272   0.3597  53.3064 212.2818
  -3.377   0.0755   0.00707   0.00096  -0.0529   0.7260   0.3775  53.4325 214.0510
  -3.292   0.0852   0.00702   0.00096  -0.0529   0.7248   0.3901  53.5557 215.2928
  -3.206   0.0949   0.00698   0.00095  -0.0529   0.7237   0.4005  53.6733 216.3131
  -3.121   0.1047   0.00694   0.00094  -0.0529   0.7227   0.4096  53.7862 217.1943
  -3.035   0.1145   0.00692   0.00093  -0.0529   0.7217   0.4175  53.8933 217.9677
  -2.950   0.1242   0.00690   0.00092  -0.0529   0.7207   0.4241  53.9951 218.6092
  -2.864   0.1341   0.00687   0.00092  -0.0529   0.7195   0.4297  54.1275 219.1476
  -2.779   0.1439   0.00684   0.00092  -0.0529   0.7181   0.4350  54.2649 219.6584
  -2.693   0.1538   0.00681   0.00092  -0.0530   0.7168   0.4398  54.4046 220.1215
  -2.608   0.1636   0.00679   0.00091  -0.0530   0.7154   0.4446  54.5498 220.5887
  -2.523   0.1735   0.00677   0.00090  -0.0530   0.7141   0.4493  54.6959 221.0442
  -2.437   0.1833   0.00674   0.00089  -0.0530   0.7127   0.4536  54.8362 221.4536
  -2.352   0.1932   0.00673   0.00087  -0.0530   0.7115   0.4576  54.9681 221.8435
  -2.266   0.2030   0.00670   0.00086  -0.0530   0.7099   0.4612  55.1337 222.1840
  -2.181   0.2129   0.00668   0.00086  -0.0531   0.7081   0.4648  55.3220 222.5350
  -2.095   0.2228   0.00666   0.00085  -0.0531   0.7063   0.4686  55.5120 222.8931
  -2.010   0.2326   0.00663   0.00084  -0.0531   0.7045   0.4718  55.6997 223.2007
  -1.925   0.2425   0.00661   0.00082  -0.0531   0.7028   0.4749  55.8779 223.5042
  -1.839   0.2523   0.00660   0.00080  -0.0531   0.7009   0.4780  56.0680 223.7993
  -1.754   0.2622   0.00658   0.00080  -0.0532   0.6984   0.4810  56.3278 224.0861
  -1.668   0.2721   0.00655   0.00079  -0.0532   0.6958   0.4840  56.5980 224.3766
  -1.583   0.2819   0.00653   0.00077  -0.0532   0.6932   0.4873  56.8622 224.6864
  -1.498   0.2918   0.00652   0.00075  -0.0532   0.6904   0.4903  57.1516 224.9768
  -1.412   0.3016   0.00649   0.00074  -0.0532   0.6869   0.4928  57.5139 225.2144
  -1.327   0.3114   0.00647   0.00072  -0.0532   0.6834   0.4953  57.8742 225.4591
  -1.241   0.3212   0.00645   0.00070  -0.0532   0.6792   0.4980  58.2981 225.7133
  -1.156   0.3310   0.00644   0.00068  -0.0532   0.6740   0.5007  58.8288 225.9694
  -1.070   0.3407   0.00642   0.00066  -0.0532   0.6675   0.5031  59.4857 226.2005
  -0.985   0.3503   0.00641   0.00063  -0.0532   0.6589   0.5057  60.3496 226.4518
  -0.899   0.3597   0.00642   0.00060  -0.0531   0.6472   0.5084  61.5212 226.7097
  -0.814   0.3687   0.00646   0.00056  -0.0529   0.6278   0.5110  63.4446 226.9614
  -0.729   0.3766   0.00660   0.00053  -0.0526   0.5916   0.5133  66.9715 227.1791
  -0.643   0.3826   0.00695   0.00059  -0.0520   0.5263   0.5156  73.2456 227.4019
  -0.558   0.3869   0.00752   0.00076  -0.0511   0.4357   0.5179  81.9072 227.6200
  -0.472   0.3943   0.00778   0.00085  -0.0508   0.3985   0.5205  85.5078 227.8659
  -0.387   0.4027   0.00793   0.00090  -0.0506   0.3777   0.5228  87.5426 228.0922
  -0.301   0.4114   0.00803   0.00094  -0.0505   0.3644   0.5252  88.8547 228.3188
  -0.216   0.4204   0.00811   0.00097  -0.0504   0.3551   0.5277  89.7818 228.5623
  -0.131   0.4296   0.00818   0.00100  -0.0504   0.3482   0.5303  90.4724 228.8106
  -0.045   0.4388   0.00824   0.00103  -0.0503   0.3426   0.5327  91.0282 229.0428
   0.040   0.4482   0.00828   0.00105  -0.0502   0.3381   0.5351  91.4873 229.2727
   0.126   0.4574   0.00833   0.00107  -0.0502   0.3341   0.5379  91.8884 229.5406
   0.211   0.4668   0.00837   0.00109  -0.0502   0.3308   0.5409  92.2181 229.8286
   0.296   0.4763   0.00840   0.00111  -0.0501   0.3278   0.5437  92.5230 230.0976
   0.382   0.4856   0.00844   0.00114  -0.0501   0.3252   0.5465  92.7937 230.3631
   0.467   0.4949   0.00848   0.00116  -0.0500   0.3228   0.5494  93.0381 230.6423
   0.553   0.5044   0.00851   0.00118  -0.0500   0.3204   0.5523  93.2779 230.9229
   0.638   0.5138   0.00854   0.00120  -0.0500   0.3180   0.5550  93.5240 231.1804
   0.724   0.5231   0.00858   0.00122  -0.0499   0.3156   0.5579  93.7691 231.4639
   0.809   0.5324   0.00863   0.00124  -0.0499   0.3133   0.5612  94.0051 231.7754
   0.894   0.5419   0.00865   0.00126  -0.0499   0.3112   0.5644  94.2219 232.0855
   0.980   0.5513   0.00867   0.00128  -0.0498   0.3091   0.5677  94.4422 232.4054
   1.065   0.5607   0.00871   0.00130  -0.0498   0.3070   0.5713  94.6603 232.7540
   1.151   0.5700   0.00875   0.00132  -0.0497   0.3049   0.5747  94.8726 233.0864
   1.236   0.5793   0.00878   0.00134  -0.0497   0.3030   0.5782  95.0743 233.4233
   1.322   0.5888   0.00880   0.00135  -0.0497   0.3010   0.5821  95.2787 233.7973
   1.407   0.5982   0.00882   0.00137  -0.0496   0.2989   0.5859  95.4988 234.1657
   1.492   0.6075   0.00885   0.00139  -0.0496   0.2968   0.5902  95.7179 234.5846
   1.663   0.6260   0.00892   0.00142  -0.0495   0.2931   0.5999  96.0969 235.5278
   1.749   0.6355   0.00893   0.00144  -0.0494   0.2915   0.6055  96.2660 236.0748
   1.834   0.6448   0.00894   0.00145  -0.0494   0.2899   0.6115  96.4401 236.6668
   1.920   0.6541   0.00895   0.00147  -0.0494   0.2882   0.6182  96.6169 237.3289
   2.005   0.6632   0.00897   0.00148  -0.0493   0.2866   0.6262  96.7887 238.1108
   2.176   0.6814   0.00897   0.00151  -0.0491   0.2835   0.6484  97.1075 240.3169
   2.261   0.6903   0.00887   0.00150  -0.0490   0.2820   0.6740  97.2693 242.9001
   2.347   0.6938   0.00842   0.00158  -0.0477   0.2808   0.8665  97.4018 265.2255
   2.432   0.7015   0.00841   0.00161  -0.0472   0.2792   0.8917  97.5645 268.9239
   2.518   0.7094   0.00842   0.00164  -0.0468   0.2777   0.9067  97.7263 271.3061
   2.603   0.7174   0.00846   0.00167  -0.0464   0.2762   0.9181  97.8876 273.2411
   2.688   0.7255   0.00850   0.00170  -0.0460   0.2747   0.9276  98.0486 274.9480
   2.774   0.7340   0.00851   0.00172  -0.0457   0.2732   0.9357  98.2120 276.4855
   2.859   0.7425   0.00853   0.00174  -0.0454   0.2715   0.9430  98.3886 277.9480
   2.945   0.7510   0.00856   0.00175  -0.0451   0.2699   0.9494  98.5591 279.2992
   3.030   0.7596   0.00860   0.00177  -0.0449   0.2683   0.9553  98.7281 280.6182
   3.116   0.7684   0.00865   0.00180  -0.0447   0.2667   0.9607  98.9059 281.9011
   3.201   0.7777   0.00869   0.00181  -0.0446   0.2650   0.9655  99.0885 283.1256
   3.286   0.7876   0.00872   0.00183  -0.0446   0.2631   0.9698  99.2985 284.2875
   3.372   0.7977   0.00876   0.00184  -0.0447   0.2609   0.9738  99.5291 285.4360
   3.457   0.8081   0.00881   0.00186  -0.0449   0.2589   0.9774  99.7493 286.5766
   3.543   0.8187   0.00887   0.00188  -0.0452   0.2570   0.9808  99.9532 287.6851
   3.628   0.8299   0.00891   0.00190  -0.0455   0.2551   0.9836 100.1603 288.7000
   3.714   0.8413   0.00894   0.00191  -0.0459   0.2528   0.9860 100.4181 289.6434
   3.799   0.8526   0.00899   0.00193  -0.0463   0.2501   0.9881 100.7099 290.5558
   3.884   0.8637   0.00906   0.00194  -0.0467   0.2474   0.9901 101.0070 291.4784
   3.970   0.8754   0.00909   0.00196  -0.0471   0.2444   0.9919 101.3388 292.3566
   4.055   0.8869   0.00914   0.00197  -0.0476   0.2410   0.9935 101.7248 293.2422
   4.141   0.8984   0.00921   0.00199  -0.0481   0.2376   0.9948 102.0979 294.0983
   4.226   0.9103   0.00926   0.00200  -0.0486   0.2337   0.9959 102.5422 294.8271
   4.312   0.9221   0.00934   0.00202  -0.0491   0.2295   0.9968 103.0111 295.6086
   4.397   0.9342   0.00939   0.00204  -0.0497   0.2244   0.9978 103.5957 296.4553
   4.482   0.9460   0.00946   0.00205  -0.0503   0.2181   0.9986 104.3173 297.4407
   4.568   0.9576   0.00956   0.00208  -0.0508   0.2103   0.9995 105.2147 298.7897
   4.653   0.9675   0.00967   0.00210  -0.0510   0.1998   1.0000 106.4606 301.0000
   4.739   0.9734   0.00983   0.00213  -0.0503   0.1868   1.0000 108.0297 301.0000
   4.910   0.9838   0.01025   0.00228  -0.0488   0.1576   1.0000 111.7177 301.0000
   4.995   0.9891   0.01046   0.00238  -0.0480   0.1455   1.0000 113.3372 301.0000
   5.080   0.9950   0.01066   0.00246  -0.0474   0.1361   1.0000 114.6295 301.0000
   5.166   1.0012   0.01084   0.00254  -0.0468   0.1279   1.0000 115.7838 301.0000
   5.251   1.0079   0.01100   0.00262  -0.0463   0.1212   1.0000 116.7568 301.0000
   5.337   1.0149   0.01115   0.00269  -0.0459   0.1153   1.0000 117.6295 301.0000
   5.422   1.0220   0.01130   0.00275  -0.0454   0.1097   1.0000 118.4776 301.0000
   5.508   1.0292   0.01144   0.00282  -0.0451   0.1044   1.0000 119.2884 301.0000
   5.593   1.0364   0.01159   0.00289  -0.0447   0.0997   1.0000 120.0244 301.0000
   5.678   1.0440   0.01172   0.00295  -0.0443   0.0953   1.0000 120.7450 301.0000
   5.764   1.0516   0.01185   0.00301  -0.0440   0.0912   1.0000 121.4056 301.0000
   5.849   1.0590   0.01199   0.00307  -0.0437   0.0873   1.0000 122.0588 301.0000
   5.935   1.0667   0.01212   0.00313  -0.0434   0.0838   1.0000 122.6701 301.0000
   6.020   1.0744   0.01226   0.00319  -0.0431   0.0806   1.0000 123.2286 301.0000
   6.106   1.0821   0.01239   0.00326  -0.0428   0.0772   1.0000 123.8245 301.0000
   6.191   1.0898   0.01252   0.00332  -0.0425   0.0742   1.0000 124.3700 301.0000
   6.276   1.0974   0.01266   0.00338  -0.0422   0.0711   1.0000 124.9257 301.0000
   6.362   1.1052   0.01278   0.00344  -0.0419   0.0685   1.0000 125.4244 301.0000
   6.447   1.1127   0.01293   0.00351  -0.0416   0.0659   1.0000 125.9159 301.0000
   6.533   1.1206   0.01305   0.00357  -0.0413   0.0635   1.0000 126.3814 301.0000
   6.618   1.1282   0.01320   0.00364  -0.0410   0.0610   1.0000 126.8706 301.0000
   6.704   1.1360   0.01332   0.00370  -0.0408   0.0588   1.0000 127.3196 301.0000
   6.789   1.1435   0.01347   0.00377  -0.0405   0.0565   1.0000 127.7868 301.0000
   6.874   1.1512   0.01361   0.00384  -0.0402   0.0545   1.0000 128.2037 301.0000
   6.960   1.1588   0.01374   0.00391  -0.0399   0.0526   1.0000 128.6215 301.0000
   7.045   1.1662   0.01391   0.00399  -0.0396   0.0508   1.0000 129.0114 301.0000
   7.131   1.1741   0.01402   0.00404  -0.0393   0.0491   1.0000 129.3838 301.0000
   7.216   1.1816   0.01416   0.00411  -0.0390   0.0473   1.0000 129.7687 301.0000
   7.301   1.1890   0.01431   0.00419  -0.0387   0.0459   1.0000 130.1055 301.0000
   7.387   1.1967   0.01444   0.00425  -0.0385   0.0444   1.0000 130.4351 301.0000
   7.472   1.2041   0.01459   0.00432  -0.0382   0.0430   1.0000 130.7571 301.0000
   7.558   1.2114   0.01475   0.00440  -0.0378   0.0418   1.0000 131.0510 301.0000
   7.643   1.2191   0.01487   0.00447  -0.0376   0.0407   1.0000 131.3222 301.0000
   7.729   1.2265   0.01502   0.00454  -0.0372   0.0396   1.0000 131.5983 301.0000
   7.814   1.2336   0.01519   0.00463  -0.0369   0.0385   1.0000 131.8626 301.0000
   7.899   1.2409   0.01534   0.00470  -0.0366   0.0375   1.0000 132.1019 301.0000
   7.985   1.2484   0.01546   0.00477  -0.0363   0.0366   1.0000 132.3468 301.0000
   8.070   1.2557   0.01561   0.00484  -0.0360   0.0356   1.0000 132.5982 301.0000
   8.156   1.2627   0.01577   0.00493  -0.0356   0.0347   1.0000 132.8315 301.0000
   8.241   1.2697   0.01594   0.00501  -0.0352   0.0339   1.0000 133.0423 301.0000
   8.327   1.2770   0.01607   0.00508  -0.0349   0.0332   1.0000 133.2335 301.0000
   8.412   1.2842   0.01622   0.00515  -0.0346   0.0324   1.0000 133.4328 301.0000
   8.498   1.2911   0.01638   0.00524  -0.0342   0.0317   1.0000 133.6253 301.0000
   8.583   1.2978   0.01655   0.00532  -0.0338   0.0310   1.0000 133.8090 301.0000
   8.668   1.3041   0.01675   0.00543  -0.0334   0.0304   1.0000 133.9949 301.0000
   8.754   1.3112   0.01689   0.00550  -0.0330   0.0299   1.0000 134.1369 301.0000
   8.839   1.3179   0.01704   0.00558  -0.0326   0.0293   1.0000 134.2920 301.0000
   8.925   1.3241   0.01720   0.00565  -0.0321   0.0288   1.0000 134.4480 301.0000
   9.010   1.3301   0.01737   0.00574  -0.0316   0.0282   1.0000 134.5986 301.0000
   9.095   1.3358   0.01755   0.00583  -0.0310   0.0277   1.0000 134.7435 301.0000
   9.181   1.3411   0.01776   0.00594  -0.0304   0.0272   1.0000 134.8900 301.0000
   9.266   1.3464   0.01797   0.00605  -0.0298   0.0268   1.0000 135.0293 301.0000
   9.352   1.3527   0.01812   0.00613  -0.0294   0.0264   1.0000 135.1425 301.0000
   9.437   1.3588   0.01828   0.00621  -0.0289   0.0260   1.0000 135.2692 301.0000
   9.523   1.3648   0.01845   0.00630  -0.0284   0.0255   1.0000 135.4005 301.0000
   9.608   1.3705   0.01864   0.00640  -0.0279   0.0251   1.0000 135.5308 301.0000
   9.694   1.3761   0.01884   0.00650  -0.0273   0.0247   1.0000 135.6554 301.0000
   9.779   1.3815   0.01905   0.00661  -0.0268   0.0243   1.0000 135.7741 301.0000
   9.864   1.3865   0.01929   0.00674  -0.0262   0.0239   1.0000 135.8925 301.0000
   9.950   1.3912   0.01956   0.00688  -0.0256   0.0235   1.0000 136.0109 301.0000
  10.035   1.3971   0.01974   0.00698  -0.0252   0.0233   1.0000 136.0972 301.0000
  10.121   1.4028   0.01994   0.00709  -0.0247   0.0230   1.0000 136.1922 301.0000
  10.206   1.4084   0.02015   0.00720  -0.0243   0.0227   1.0000 136.2905 301.0000
  10.291   1.4139   0.02037   0.00732  -0.0238   0.0224   1.0000 136.3892 301.0000
  10.377   1.4192   0.02060   0.00744  -0.0233   0.0221   1.0000 136.4866 301.0000
  10.462   1.4243   0.02084   0.00757  -0.0228   0.0218   1.0000 136.5811 301.0000
  10.548   1.4293   0.02110   0.00771  -0.0223   0.0215   1.0000 136.6747 301.0000
  10.633   1.4341   0.02138   0.00787  -0.0218   0.0212   1.0000 136.7696 301.0000
  10.719   1.4384   0.02169   0.00804  -0.0213   0.0209   1.0000 136.8701 301.0000
  10.804   1.4420   0.02205   0.00825  -0.0207   0.0206   1.0000 136.9785 301.0000
  10.889   1.4471   0.02231   0.00840  -0.0203   0.0204   1.0000 137.0509 301.0000
  10.975   1.4524   0.02256   0.00854  -0.0199   0.0201   1.0000 137.1250 301.0000
  11.060   1.4575   0.02282   0.00869  -0.0195   0.0199   1.0000 137.2065 301.0000
  11.146   1.4626   0.02309   0.00884  -0.0190   0.0197   1.0000 137.2923 301.0000
  11.231   1.4675   0.02337   0.00900  -0.0187   0.0194   1.0000 137.3796 301.0000
  11.317   1.4724   0.02367   0.00917  -0.0183   0.0192   1.0000 137.4671 301.0000
  11.402   1.4770   0.02398   0.00935  -0.0178   0.0189   1.0000 137.5543 301.0000
  11.487   1.4814   0.02431   0.00954  -0.0174   0.0187   1.0000 137.6392 301.0000
  11.573   1.4855   0.02466   0.00975  -0.0170   0.0184   1.0000 137.7243 301.0000
  11.658   1.4893   0.02505   0.00998  -0.0166   0.0182   1.0000 137.8120 301.0000
  11.744   1.4923   0.02550   0.01025  -0.0161   0.0179   1.0000 137.9053 301.0000
  11.829   1.4947   0.02602   0.01057  -0.0156   0.0176   1.0000 138.0023 301.0000
  11.915   1.5001   0.02629   0.01073  -0.0153   0.0175   1.0000 138.0603 301.0000
  12.000   1.5051   0.02659   0.01090  -0.0150   0.0173   1.0000 138.1298 301.0000
