  
       XFOIL         Version 6.99
  
 Calculated polar for: Repaneled_Airfoil                               
  
 1 1 Reynolds number fixed          Mach number fixed         
  
 xtrf =   1.000 (top)        1.000 (bottom)  
 Mach =   0.000     Re =     1.000 e 6     Ncrit =   9.000  9.000
  
   alpha    CL        CD       CDp       CM     Top_Xtr  Bot_Xtr  Top_Itr  Bot_Itr
  ------ -------- --------- --------- -------- -------- -------- -------- --------
  -5.000  -0.2222   0.00968   0.00253  -0.1033   0.9561   0.0428  21.2072 171.0055
  -4.915  -0.2132   0.00958   0.00247  -0.1032   0.9548   0.0441  21.5089 171.3082
  -4.829  -0.2027   0.00948   0.00241  -0.1034   0.9539   0.0457  21.7259 171.6709
  -4.744  -0.1917   0.00940   0.00234  -0.1037   0.9531   0.0472  21.9083 172.0299
  -4.658  -0.1827   0.00930   0.00229  -0.1036   0.9517   0.0488  22.2232 172.3807
  -4.573  -0.1736   0.00923   0.00225  -0.1034   0.9502   0.0505  22.5603 172.7513
  -4.487  -0.1632   0.00914   0.00218  -0.1036   0.9490   0.0522  22.8220 173.1072
  -4.402  -0.1533   0.00904   0.00212  -0.1037   0.9476   0.0538  23.1157 173.4631
  -4.317  -0.1448   0.00898   0.00208  -0.1034   0.9456   0.0554  23.5406 173.7893
  -4.231  -0.1346   0.00889   0.00201  -0.1035   0.9441   0.0569  23.8553 174.1045
  -4.146  -0.1256   0.00880   0.00196  -0.1034   0.9422   0.0583  24.2452 174.3947
  -4.060  -0.1165   0.00873   0.00191  -0.1032   0.9402   0.0597  24.6644 174.6660
  -3.975  -0.1061   0.00864   0.00184  -0.1033   0.9385   0.0609  24.9993 174.9146
  -3.889  -0.0981   0.00857   0.00179  -0.1030   0.9357   0.0620  25.5431 175.1322
  -3.804  -0.0881   0.00847   0.00172  -0.1030   0.9336   0.0633  25.9662 175.3835
  -3.719  -0.0798   0.00841   0.00168  -0.1027   0.9304   0.0646  26.5703 175.6269
  -3.633  -0.0702   0.00834   0.00162  -0.1027   0.9275   0.0659  27.1156 175.8858
  -3.548  -0.0613   0.00827   0.00157  -0.1025   0.9236   0.0672  27.8154 176.1286
  -3.462  -0.0523   0.00819   0.00152  -0.1024   0.9193   0.0685  28.5871 176.3860
  -3.377  -0.0431   0.00812   0.00147  -0.1022   0.9139   0.0700  29.5184 176.6602
  -3.292  -0.0336   0.00806   0.00140  -0.1022   0.9061   0.0714  30.8250 176.9305
  -3.206  -0.0218   0.00793   0.00121  -0.1025   0.8569   0.0731  38.1385 177.2313
  -3.121  -0.0228   0.00843   0.00114  -0.0999   0.7397   0.0739  52.2284 177.3745
  -3.035  -0.0163   0.00855   0.00116  -0.0993   0.7167   0.0752  54.7011 177.6222
  -2.950  -0.0086   0.00862   0.00117  -0.0989   0.7014   0.0767  56.3117 177.8838
  -2.864  -0.0003   0.00865   0.00116  -0.0986   0.6890   0.0781  57.5937 178.1350
  -2.779   0.0081   0.00866   0.00116  -0.0984   0.6784   0.0796  58.6895 178.4037
  -2.693   0.0168   0.00868   0.00115  -0.0982   0.6689   0.0813  59.6548 178.6990
  -2.608   0.0257   0.00871   0.00114  -0.0980   0.6602   0.0829  60.5344 178.9773
  -2.523   0.0345   0.00870   0.00113  -0.0979   0.6522   0.0845  61.3415 179.2553
  -2.437   0.0434   0.00870   0.00112  -0.0977   0.6447   0.0861  62.0959 179.5313
  -2.352   0.0524   0.00871   0.00111  -0.0976   0.6373   0.0878  62.8252 179.8106
  -2.266   0.0615   0.00871   0.00110  -0.0975   0.6305   0.0893  63.5047 180.0649
  -2.181   0.0706   0.00871   0.00109  -0.0974   0.6240   0.0909  64.1501 180.3248
  -2.095   0.0797   0.00871   0.00108  -0.0973   0.6173   0.0926  64.8035 180.6057
  -2.010   0.0889   0.00872   0.00106  -0.0972   0.6110   0.0943  65.4205 180.8886
  -1.925   0.0980   0.00872   0.00105  -0.0971   0.6049   0.0959  66.0223 181.1546
  -1.839   0.1073   0.00871   0.00104  -0.0970   0.5987   0.0977  66.6319 181.4343
  -1.754   0.1165   0.00871   0.00103  -0.0970   0.5928   0.0995  67.1987 181.7286
  -1.583   0.1351   0.00871   0.00101  -0.0968   0.5812   0.1030  68.3251 182.2756
  -1.498   0.1443   0.00871   0.00100  -0.0967   0.5756   0.1048  68.8763 182.5546
  -1.412   0.1537   0.00872   0.00099  -0.0967   0.5701   0.1066  69.3989 182.8407
  -1.327   0.1630   0.00872   0.00098  -0.0966   0.5648   0.1083  69.9166 183.1065
  -1.241   0.1724   0.00871   0.00097  -0.0966   0.5596   0.1102  70.4132 183.3863
  -1.156   0.1817   0.00872   0.00097  -0.0965   0.5545   0.1121  70.9040 183.6828
  -1.070   0.1912   0.00873   0.00096  -0.0965   0.5497   0.1140  71.3723 183.9644
  -0.985   0.2005   0.00872   0.00095  -0.0964   0.5447   0.1158  71.8517 184.2358
  -0.899   0.2099   0.00872   0.00094  -0.0964   0.5399   0.1177  72.3057 184.5191
  -0.814   0.2193   0.00873   0.00093  -0.0963   0.5349   0.1197  72.7850 184.8125
  -0.729   0.2288   0.00873   0.00092  -0.0963   0.5302   0.1216  73.2369 185.0850
  -0.643   0.2382   0.00873   0.00092  -0.0962   0.5252   0.1235  73.7217 185.3619
  -0.558   0.2476   0.00873   0.00091  -0.0962   0.5205   0.1255  74.1716 185.6527
  -0.472   0.2571   0.00874   0.00090  -0.0961   0.5154   0.1274  74.6536 185.9326
  -0.387   0.2664   0.00874   0.00089  -0.0961   0.5108   0.1293  75.0960 186.1913
  -0.301   0.2759   0.00874   0.00089  -0.0961   0.5060   0.1312  75.5601 186.4674
  -0.131   0.2949   0.00876   0.00087  -0.0960   0.4967   0.1353  76.4463 187.0396
  -0.045   0.3043   0.00876   0.00086  -0.0959   0.4920   0.1374  76.8926 187.3254
   0.040   0.3138   0.00877   0.00086  -0.0959   0.4876   0.1397  77.3193 187.6428
   0.126   0.3233   0.00878   0.00085  -0.0959   0.4829   0.1420  77.7650 187.9617
   0.211   0.3327   0.00878   0.00085  -0.0958   0.4787   0.1443  78.1701 188.2722
   0.296   0.3423   0.00878   0.00084  -0.0958   0.4742   0.1467  78.6002 188.6026
   0.382   0.3517   0.00881   0.00084  -0.0958   0.4700   0.1491  79.0003 188.9259
   0.467   0.3612   0.00880   0.00083  -0.0957   0.4657   0.1514  79.4174 189.2272
   0.553   0.3707   0.00881   0.00083  -0.0957   0.4613   0.1538  79.8398 189.5468
   0.638   0.3802   0.00882   0.00082  -0.0957   0.4572   0.1563  80.2338 189.8790
   0.724   0.3898   0.00882   0.00082  -0.0957   0.4528   0.1588  80.6563 190.1991
   0.809   0.3992   0.00883   0.00081  -0.0956   0.4487   0.1615  81.0443 190.5604
   0.894   0.4088   0.00884   0.00081  -0.0956   0.4445   0.1645  81.4504 190.9402
   0.980   0.4183   0.00885   0.00081  -0.0956   0.4403   0.1675  81.8528 191.3250
   1.065   0.4278   0.00886   0.00080  -0.0955   0.4364   0.1709  82.2316 191.7642
   1.151   0.4373   0.00886   0.00080  -0.0955   0.4321   0.1744  82.6441 192.2042
   1.236   0.4468   0.00888   0.00080  -0.0955   0.4282   0.1785  83.0235 192.7164
   1.322   0.4564   0.00887   0.00080  -0.0955   0.4241   0.1829  83.4148 193.2644
   1.407   0.4659   0.00888   0.00079  -0.0955   0.4201   0.1882  83.8077 193.9057
   1.492   0.4754   0.00888   0.00079  -0.0954   0.4164   0.1941  84.1683 194.6251
   1.578   0.4850   0.00887   0.00079  -0.0954   0.4124   0.2012  84.5541 195.4727
   1.663   0.4944   0.00887   0.00078  -0.0954   0.4086   0.2111  84.9204 196.6454
   1.749   0.5041   0.00881   0.00077  -0.0955   0.4050   0.2319  85.2748 199.0391
   1.834   0.5142   0.00780   0.00073  -0.0965   0.4012   0.5907  85.6438 234.7483
   1.920   0.5234   0.00763   0.00078  -0.0965   0.3976   0.6700  85.9927 242.6000
   2.005   0.5326   0.00760   0.00084  -0.0964   0.3940   0.7068  86.3461 246.3874
   2.091   0.5419   0.00762   0.00089  -0.0963   0.3903   0.7274  86.7113 248.5714
   2.176   0.5511   0.00767   0.00093  -0.0962   0.3869   0.7412  87.0438 250.0577
   2.261   0.5606   0.00771   0.00096  -0.0961   0.3834   0.7507  87.3887 251.0998
   2.347   0.5700   0.00777   0.00099  -0.0960   0.3799   0.7581  87.7351 251.9146
   2.432   0.5793   0.00782   0.00102  -0.0959   0.3767   0.7635  88.0468 252.5266
   2.518   0.5889   0.00787   0.00105  -0.0958   0.3734   0.7687  88.3723 253.1038
   2.603   0.5983   0.00792   0.00108  -0.0957   0.3701   0.7727  88.6977 253.5571
   2.688   0.6077   0.00799   0.00109  -0.0957   0.3672   0.7767  88.9911 254.0208
   2.774   0.6172   0.00803   0.00112  -0.0956   0.3643   0.7795  89.2733 254.3421
   2.859   0.6266   0.00808   0.00115  -0.0955   0.3615   0.7826  89.5586 254.6994
   2.945   0.6361   0.00814   0.00117  -0.0954   0.3588   0.7856  89.8271 255.0433
   3.030   0.6454   0.00819   0.00120  -0.0953   0.3563   0.7878  90.0704 255.2977
   3.116   0.6549   0.00823   0.00122  -0.0952   0.3538   0.7903  90.3209 255.5897
   3.201   0.6644   0.00829   0.00124  -0.0952   0.3513   0.7930  90.5747 255.9073
   3.286   0.6737   0.00834   0.00126  -0.0951   0.3489   0.7951  90.8134 256.1497
   3.372   0.6830   0.00840   0.00129  -0.0950   0.3467   0.7970  91.0340 256.3855
   3.457   0.6925   0.00844   0.00131  -0.0949   0.3445   0.7992  91.2585 256.6448
   3.543   0.7021   0.00849   0.00133  -0.0948   0.3422   0.8016  91.4902 256.9217
   3.628   0.7114   0.00854   0.00135  -0.0947   0.3400   0.8032  91.7101 257.1209
   3.714   0.7206   0.00859   0.00138  -0.0946   0.3380   0.8047  91.9130 257.2974
   3.799   0.7300   0.00864   0.00140  -0.0945   0.3361   0.8063  92.1005 257.4874
   3.884   0.7395   0.00868   0.00142  -0.0945   0.3342   0.8080  92.2923 257.6922
   3.970   0.7490   0.00873   0.00143  -0.0944   0.3324   0.8097  92.4842 257.9052
   4.055   0.7584   0.00877   0.00145  -0.0943   0.3306   0.8111  92.6669 258.0734
   4.141   0.7676   0.00882   0.00147  -0.0942   0.3289   0.8123  92.8369 258.2140
   4.226   0.7768   0.00888   0.00149  -0.0941   0.3273   0.8135  92.9958 258.3694
   4.312   0.7863   0.00891   0.00151  -0.0940   0.3259   0.8150  93.1425 258.5459
   4.397   0.7958   0.00895   0.00153  -0.0940   0.3244   0.8166  93.2984 258.7478
   4.482   0.8053   0.00900   0.00154  -0.0939   0.3228   0.8183  93.4534 258.9558
   4.568   0.8146   0.00904   0.00156  -0.0938   0.3214   0.8195  93.6023 259.1042
   4.653   0.8238   0.00909   0.00158  -0.0937   0.3200   0.8206  93.7457 259.2432
   4.739   0.8330   0.00914   0.00160  -0.0936   0.3186   0.8217  93.8854 259.3813
   4.824   0.8422   0.00919   0.00162  -0.0935   0.3173   0.8228  94.0222 259.5133
   4.910   0.8518   0.00922   0.00163  -0.0934   0.3160   0.8239  94.1522 259.6524
   4.995   0.8613   0.00926   0.00164  -0.0934   0.3147   0.8251  94.2909 259.8056
   5.080   0.8708   0.00930   0.00165  -0.0933   0.3133   0.8264  94.4320 259.9658
   5.166   0.8801   0.00934   0.00167  -0.0932   0.3120   0.8274  94.5682 260.0960
   5.251   0.8893   0.00938   0.00169  -0.0931   0.3107   0.8285  94.6978 260.2324
   5.337   0.8984   0.00943   0.00171  -0.0930   0.3095   0.8297  94.8245 260.3848
   5.422   0.9075   0.00949   0.00173  -0.0928   0.3082   0.8310  94.9598 260.5497
   5.508   0.9169   0.00953   0.00174  -0.0928   0.3069   0.8323  95.0972 260.7203
   5.593   0.9264   0.00956   0.00175  -0.0927   0.3053   0.8337  95.2565 260.8956
   5.678   0.9358   0.00960   0.00176  -0.0926   0.3037   0.8349  95.4284 261.0430
   5.764   0.9450   0.00964   0.00178  -0.0925   0.3020   0.8358  95.6006 261.1653
   5.849   0.9541   0.00968   0.00179  -0.0924   0.3004   0.8369  95.7672 261.3061
   5.935   0.9631   0.00975   0.00181  -0.0922   0.2989   0.8383  95.9229 261.4822
   6.020   0.9722   0.00979   0.00182  -0.0921   0.2976   0.8399  96.0682 261.6881
   6.106   0.9817   0.00983   0.00183  -0.0921   0.2961   0.8416  96.2256 261.9076
   6.191   0.9911   0.00986   0.00184  -0.0920   0.2944   0.8429  96.3984 262.0827
   6.276   1.0002   0.00989   0.00185  -0.0918   0.2927   0.8439  96.5784 262.2224
   6.362   1.0093   0.00994   0.00186  -0.0917   0.2909   0.8448  96.7692 262.3348
   6.447   1.0182   0.01001   0.00188  -0.0916   0.2890   0.8454  96.9705 262.4187
   6.533   1.0277   0.01003   0.00188  -0.0915   0.2872   0.8460  97.1616 262.4979
   6.618   1.0372   0.01006   0.00188  -0.0915   0.2852   0.8467  97.3694 262.5817
   6.704   1.0465   0.01010   0.00188  -0.0914   0.2833   0.8473  97.5720 262.6693
   6.789   1.0558   0.01015   0.00189  -0.0913   0.2815   0.8480  97.7567 262.7585
   6.874   1.0649   0.01021   0.00190  -0.0912   0.2799   0.8487  97.9311 262.8476
   6.960   1.0742   0.01025   0.00191  -0.0912   0.2784   0.8493  98.0906 262.9329
   7.045   1.0837   0.01028   0.00191  -0.0911   0.2768   0.8499  98.2650 263.0111
   7.131   1.0930   0.01031   0.00192  -0.0910   0.2750   0.8504  98.4582 263.0746
   7.216   1.1021   0.01036   0.00192  -0.0909   0.2731   0.8509  98.6621 263.1395
   7.301   1.1111   0.01041   0.00193  -0.0908   0.2711   0.8514  98.8711 263.2059
   7.387   1.1202   0.01047   0.00194  -0.0907   0.2692   0.8519  99.0765 263.2741
   7.472   1.1295   0.01049   0.00195  -0.0906   0.2672   0.8524  99.2927 263.3465
   7.558   1.1388   0.01053   0.00195  -0.0905   0.2652   0.8530  99.5146 263.4225
   7.643   1.1478   0.01058   0.00196  -0.0904   0.2631   0.8536  99.7402 263.5019
   7.729   1.1567   0.01066   0.00197  -0.0903   0.2610   0.8542  99.9676 263.5844
   7.814   1.1661   0.01068   0.00197  -0.0902   0.2589   0.8548 100.2009 263.6663
   7.899   1.1754   0.01072   0.00197  -0.0901   0.2564   0.8554 100.4716 263.7494
   7.985   1.1845   0.01078   0.00198  -0.0900   0.2538   0.8560 100.7558 263.8312
   8.070   1.1935   0.01085   0.00199  -0.0899   0.2513   0.8566 101.0274 263.9118
   8.156   1.2028   0.01089   0.00199  -0.0898   0.2488   0.8572 101.3080 263.9896
   8.241   1.2118   0.01093   0.00200  -0.0897   0.2460   0.8577 101.6128 264.0577
   8.327   1.2206   0.01100   0.00201  -0.0895   0.2433   0.8582 101.9116 264.1278
   8.412   1.2296   0.01105   0.00202  -0.0894   0.2407   0.8587 102.2027 264.2021
   8.498   1.2386   0.01110   0.00203  -0.0893   0.2375   0.8593 102.5687 264.2794
   8.583   1.2473   0.01119   0.00205  -0.0891   0.2339   0.8599 102.9746 264.3609
   8.668   1.2563   0.01124   0.00205  -0.0890   0.2296   0.8605 103.4636 264.4463
   8.754   1.2649   0.01133   0.00207  -0.0888   0.2240   0.8611 104.0926 264.5357
   8.839   1.2734   0.01143   0.00209  -0.0886   0.2176   0.8618 104.8311 264.6282
   8.925   1.2818   0.01155   0.00212  -0.0884   0.2100   0.8625 105.7186 264.7211
   9.010   1.2898   0.01171   0.00216  -0.0881   0.1988   0.8631 107.0470 264.8135
   9.095   1.2969   0.01196   0.00225  -0.0877   0.1842   0.8638 108.8215 264.9054
   9.266   1.3076   0.01279   0.00264  -0.0864   0.1393   0.8651 114.6664 265.0779
   9.352   1.3113   0.01333   0.00294  -0.0855   0.1126   0.8657 118.5113 265.1641
   9.437   1.3156   0.01382   0.00322  -0.0846   0.0918   0.8663 121.7917 265.2517
   9.523   1.3212   0.01418   0.00342  -0.0840   0.0791   0.8669 123.9589 265.3406
   9.608   1.3274   0.01446   0.00357  -0.0834   0.0700   0.8676 125.6035 265.4312
   9.694   1.3341   0.01470   0.00370  -0.0829   0.0634   0.8682 126.8626 265.5268
   9.779   1.3411   0.01492   0.00381  -0.0825   0.0582   0.8689 127.8991 265.6270
   9.864   1.3482   0.01511   0.00391  -0.0821   0.0543   0.8697 128.7110 265.7299
   9.950   1.3555   0.01529   0.00400  -0.0817   0.0510   0.8704 129.4110 265.8331
  10.035   1.3627   0.01547   0.00410  -0.0813   0.0480   0.8711 130.0770 265.9362
  10.121   1.3700   0.01563   0.00418  -0.0809   0.0454   0.8718 130.6686 266.0324
  10.206   1.3772   0.01580   0.00427  -0.0805   0.0432   0.8724 131.1759 266.1231
  10.291   1.3844   0.01595   0.00435  -0.0801   0.0412   0.8731 131.6481 266.2170
  10.377   1.3915   0.01612   0.00444  -0.0796   0.0395   0.8738 132.0663 266.3164
  10.462   1.3990   0.01625   0.00450  -0.0792   0.0379   0.8745 132.4712 266.4167
  10.548   1.4061   0.01642   0.00459  -0.0788   0.0363   0.8752 132.8668 266.5231
  10.633   1.4133   0.01657   0.00466  -0.0784   0.0350   0.8760 133.2043 266.6367
  10.719   1.4206   0.01671   0.00474  -0.0780   0.0337   0.8768 133.5398 266.7546
  10.804   1.4276   0.01688   0.00482  -0.0776   0.0325   0.8777 133.8566 266.8775
  10.975   1.4418   0.01717   0.00497  -0.0767   0.0306   0.8793 134.3901 267.1123
  11.060   1.4487   0.01732   0.00505  -0.0763   0.0297   0.8801 134.6443 267.2344
  11.146   1.4553   0.01749   0.00514  -0.0758   0.0288   0.8810 134.8821 267.3697
  11.231   1.4622   0.01764   0.00522  -0.0753   0.0281   0.8820 135.0858 267.5121
  11.317   1.4693   0.01777   0.00529  -0.0749   0.0274   0.8830 135.2818 267.6619
  11.402   1.4762   0.01791   0.00536  -0.0744   0.0267   0.8840 135.4832 267.8151
  11.487   1.4830   0.01806   0.00544  -0.0739   0.0261   0.8851 135.6741 267.9703
  11.573   1.4894   0.01823   0.00553  -0.0734   0.0255   0.8861 135.8539 268.1189
  11.658   1.4956   0.01840   0.00562  -0.0728   0.0249   0.8871 136.0208 268.2785
  11.744   1.5023   0.01854   0.00569  -0.0723   0.0245   0.8882 136.1612 268.4483
  11.829   1.5088   0.01868   0.00577  -0.0718   0.0240   0.8894 136.3110 268.6310
  11.915   1.5148   0.01883   0.00584  -0.0712   0.0235   0.8907 136.4595 268.8275
