  
       XFOIL         Version 6.99
  
 Calculated polar for: Repaneled_Airfoil                               
  
 1 1 Reynolds number fixed          Mach number fixed         
  
 xtrf =   1.000 (top)        1.000 (bottom)  
 Mach =   0.000     Re =     1.000 e 6     Ncrit =   9.000  9.000
  
   alpha    CL        CD       CDp       CM     Top_Xtr  Bot_Xtr  Top_Itr  Bot_Itr
  ------ -------- --------- --------- -------- -------- -------- -------- --------
  -5.000  -0.4496   0.01059   0.00230  -0.0364   0.7793   0.0299  47.7828 167.7300
  -4.915  -0.4403   0.01054   0.00225  -0.0363   0.7774   0.0305  48.0016 167.8864
  -4.829  -0.4308   0.01047   0.00221  -0.0363   0.7750   0.0310  48.2778 168.0377
  -4.744  -0.4215   0.01038   0.00216  -0.0362   0.7727   0.0317  48.5416 168.2186
  -4.658  -0.4121   0.01031   0.00211  -0.0362   0.7706   0.0324  48.7740 168.4038
  -4.573  -0.4028   0.01026   0.00207  -0.0361   0.7690   0.0331  48.9673 168.5954
  -4.487  -0.3933   0.01019   0.00203  -0.0361   0.7671   0.0338  49.1774 168.7893
  -4.402  -0.3837   0.01013   0.00199  -0.0360   0.7652   0.0345  49.3873 168.9693
  -4.317  -0.3743   0.01006   0.00195  -0.0360   0.7635   0.0353  49.5789 169.1667
  -4.231  -0.3649   0.01000   0.00191  -0.0359   0.7620   0.0361  49.7503 169.3804
  -4.146  -0.3554   0.00994   0.00187  -0.0359   0.7606   0.0370  49.9054 169.6060
  -4.060  -0.3459   0.00989   0.00183  -0.0358   0.7592   0.0379  50.0632 169.8232
  -3.975  -0.3363   0.00984   0.00180  -0.0358   0.7575   0.0386  50.2528 170.0138
  -3.889  -0.3268   0.00976   0.00176  -0.0358   0.7558   0.0395  50.4418 170.2338
  -3.804  -0.3173   0.00970   0.00172  -0.0357   0.7542   0.0405  50.6237 170.4621
  -3.719  -0.3078   0.00964   0.00169  -0.0357   0.7527   0.0415  50.7946 170.6979
  -3.633  -0.2983   0.00960   0.00165  -0.0357   0.7512   0.0424  50.9526 170.9264
  -3.548  -0.2888   0.00954   0.00162  -0.0356   0.7496   0.0435  51.1364 171.1841
  -3.462  -0.2793   0.00947   0.00160  -0.0356   0.7477   0.0450  51.3399 171.5177
  -3.377  -0.2696   0.00943   0.00158  -0.0356   0.7459   0.0466  51.5405 171.8825
  -3.292  -0.2601   0.00938   0.00155  -0.0356   0.7442   0.0482  51.7335 172.2453
  -3.206  -0.2506   0.00934   0.00153  -0.0355   0.7425   0.0500  51.9158 172.6458
  -3.121  -0.2409   0.00931   0.00152  -0.0355   0.7407   0.0517  52.1167 173.0085
  -3.035  -0.2314   0.00924   0.00150  -0.0355   0.7385   0.0534  52.3511 173.3840
  -2.950  -0.2217   0.00920   0.00149  -0.0355   0.7364   0.0551  52.5836 173.7417
  -2.864  -0.2121   0.00917   0.00146  -0.0355   0.7344   0.0566  52.8021 174.0455
  -2.693  -0.1930   0.00907   0.00142  -0.0354   0.7302   0.0594  53.2565 174.6160
  -2.608  -0.1833   0.00903   0.00139  -0.0354   0.7278   0.0606  53.5139 174.8530
  -2.523  -0.1737   0.00898   0.00136  -0.0354   0.7255   0.0617  53.7559 175.0716
  -2.437  -0.1643   0.00893   0.00133  -0.0353   0.7235   0.0629  53.9734 175.3096
  -2.352  -0.1546   0.00888   0.00130  -0.0353   0.7210   0.0642  54.2387 175.5613
  -2.266  -0.1449   0.00884   0.00128  -0.0353   0.7185   0.0655  54.5095 175.8197
  -2.181  -0.1353   0.00881   0.00125  -0.0353   0.7160   0.0668  54.7704 176.0622
  -2.095  -0.1258   0.00875   0.00122  -0.0352   0.7137   0.0681  55.0110 176.3183
  -2.010  -0.1161   0.00871   0.00120  -0.0352   0.7109   0.0695  55.3140 176.5848
  -1.925  -0.1064   0.00867   0.00118  -0.0352   0.7079   0.0710  55.6229 176.8536
  -1.839  -0.0969   0.00864   0.00115  -0.0352   0.7052   0.0724  55.9132 177.1078
  -1.754  -0.0873   0.00859   0.00113  -0.0351   0.7022   0.0738  56.2275 177.3714
  -1.668  -0.0776   0.00856   0.00111  -0.0351   0.6988   0.0753  56.5784 177.6476
  -1.583  -0.0679   0.00854   0.00109  -0.0351   0.6956   0.0768  56.9175 177.9161
  -1.498  -0.0583   0.00849   0.00106  -0.0351   0.6920   0.0783  57.2835 178.1832
  -1.412  -0.0487   0.00846   0.00105  -0.0351   0.6882   0.0799  57.6851 178.4621
  -1.327  -0.0391   0.00844   0.00103  -0.0350   0.6844   0.0816  58.0696 178.7505
  -1.156  -0.0199   0.00837   0.00098  -0.0350   0.6757   0.0846  58.9667 179.2714
  -1.070  -0.0102   0.00834   0.00097  -0.0350   0.6708   0.0861  59.4666 179.5322
  -0.899   0.0090   0.00831   0.00092  -0.0349   0.6603   0.0892  60.5268 180.0616
  -0.814   0.0185   0.00829   0.00091  -0.0349   0.6549   0.0908  61.0731 180.3267
  -0.729   0.0281   0.00827   0.00089  -0.0348   0.6487   0.0926  61.7003 180.6082
  -0.643   0.0377   0.00827   0.00087  -0.0348   0.6423   0.0942  62.3434 180.8867
  -0.558   0.0472   0.00826   0.00086  -0.0348   0.6352   0.0958  63.0437 181.1454
  -0.472   0.0567   0.00825   0.00085  -0.0347   0.6277   0.0975  63.7940 181.4087
  -0.387   0.0662   0.00825   0.00083  -0.0347   0.6197   0.0992  64.5801 181.6832
  -0.301   0.0757   0.00827   0.00082  -0.0346   0.6111   0.1008  65.4260 181.9422
  -0.216   0.0850   0.00827   0.00080  -0.0346   0.6019   0.1024  66.3284 182.1937
  -0.131   0.0944   0.00828   0.00080  -0.0345   0.5922   0.1041  67.2719 182.4530
  -0.045   0.1038   0.00830   0.00079  -0.0345   0.5817   0.1059  68.2927 182.7308
   0.040   0.1132   0.00834   0.00078  -0.0344   0.5705   0.1075  69.3756 182.9918
   0.126   0.1224   0.00835   0.00078  -0.0343   0.5590   0.1093  70.4864 183.2580
   0.211   0.1317   0.00838   0.00078  -0.0343   0.5466   0.1111  71.6779 183.5342
   0.296   0.1410   0.00843   0.00078  -0.0342   0.5341   0.1130  72.8845 183.8148
   0.382   0.1502   0.00848   0.00078  -0.0341   0.5211   0.1147  74.1257 184.0699
   0.467   0.1594   0.00851   0.00079  -0.0341   0.5078   0.1164  75.4049 184.3275
   0.553   0.1686   0.00856   0.00079  -0.0340   0.4943   0.1182  76.6930 184.5970
   0.724   0.1870   0.00868   0.00081  -0.0339   0.4679   0.1217  79.2187 185.1022
   0.809   0.1962   0.00872   0.00082  -0.0338   0.4549   0.1233  80.4700 185.3451
   0.894   0.2054   0.00877   0.00082  -0.0338   0.4426   0.1251  81.6520 185.6034
   0.980   0.2147   0.00883   0.00083  -0.0337   0.4309   0.1270  82.7821 185.8705
   1.065   0.2239   0.00888   0.00084  -0.0336   0.4199   0.1288  83.8444 186.1226
   1.151   0.2331   0.00892   0.00086  -0.0336   0.4098   0.1306  84.8193 186.3825
   1.236   0.2424   0.00896   0.00087  -0.0335   0.4005   0.1326  85.7345 186.6665
   1.322   0.2518   0.00901   0.00087  -0.0335   0.3919   0.1347  86.5750 186.9538
   1.407   0.2611   0.00904   0.00089  -0.0335   0.3842   0.1367  87.3287 187.2389
   1.492   0.2704   0.00908   0.00090  -0.0334   0.3771   0.1389  88.0252 187.5403
   1.578   0.2798   0.00911   0.00091  -0.0334   0.3704   0.1411  88.6858 187.8485
   1.663   0.2892   0.00914   0.00092  -0.0334   0.3647   0.1432  89.2576 188.1274
   1.749   0.2985   0.00916   0.00093  -0.0333   0.3593   0.1453  89.7954 188.4104
   1.834   0.3080   0.00919   0.00094  -0.0333   0.3547   0.1475  90.2546 188.7101
   1.920   0.3175   0.00922   0.00094  -0.0333   0.3502   0.1496  90.6974 188.9988
   2.005   0.3268   0.00924   0.00095  -0.0332   0.3465   0.1519  91.0745 189.2933
   2.091   0.3363   0.00925   0.00096  -0.0332   0.3429   0.1543  91.4361 189.6207
   2.176   0.3458   0.00927   0.00097  -0.0332   0.3396   0.1569  91.7738 189.9607
   2.261   0.3552   0.00929   0.00098  -0.0332   0.3367   0.1596  92.0601 190.3097
   2.347   0.3648   0.00929   0.00098  -0.0332   0.3341   0.1627  92.3253 190.7078
   2.432   0.3743   0.00931   0.00099  -0.0332   0.3316   0.1658  92.5811 191.1065
   2.518   0.3837   0.00932   0.00100  -0.0331   0.3293   0.1693  92.8165 191.5547
   2.688   0.4026   0.00934   0.00102  -0.0331   0.3253   0.1774  93.2244 192.5786
   2.774   0.4122   0.00934   0.00103  -0.0331   0.3233   0.1822  93.4228 193.1738
   2.859   0.4216   0.00934   0.00103  -0.0331   0.3215   0.1881  93.6145 193.9025
   2.945   0.4309   0.00934   0.00104  -0.0330   0.3197   0.1959  93.7942 194.8460
   3.030   0.4401   0.00932   0.00104  -0.0330   0.3181   0.2083  93.9623 196.3136
   3.116   0.4463   0.00876   0.00103  -0.0326   0.3168   0.4172  94.0890 218.1070
   3.201   0.4542   0.00854   0.00105  -0.0324   0.3155   0.5018  94.2280 226.2177
   3.286   0.4623   0.00837   0.00107  -0.0322   0.3141   0.5647  94.3715 232.2460
   3.372   0.4701   0.00819   0.00107  -0.0319   0.3127   0.6302  94.5122 238.6220
   3.457   0.4709   0.00750   0.00110  -0.0301   0.3118   0.8471  94.6123 262.6776
   3.543   0.4769   0.00746   0.00118  -0.0291   0.3106   0.9020  94.7366 270.6321
   3.628   0.4847   0.00749   0.00123  -0.0286   0.3093   0.9184  94.8644 273.3811
   3.714   0.4927   0.00753   0.00127  -0.0282   0.3081   0.9297  94.9911 275.4084
   3.799   0.5011   0.00756   0.00130  -0.0278   0.3071   0.9381  95.0979 277.0190
   3.884   0.5095   0.00759   0.00133  -0.0275   0.3060   0.9445  95.2085 278.3140
   3.970   0.5180   0.00762   0.00136  -0.0271   0.3049   0.9500  95.3211 279.4950
   4.055   0.5266   0.00766   0.00138  -0.0268   0.3039   0.9548  95.4311 280.5747
   4.141   0.5351   0.00770   0.00141  -0.0265   0.3028   0.9591  95.5367 281.5902
   4.226   0.5438   0.00774   0.00144  -0.0263   0.3019   0.9630  95.6390 282.5408
   4.312   0.5527   0.00779   0.00146  -0.0261   0.3009   0.9664  95.7388 283.4311
   4.397   0.5617   0.00784   0.00149  -0.0259   0.3000   0.9696  95.8375 284.2800
   4.482   0.5708   0.00790   0.00152  -0.0258   0.2990   0.9726  95.9380 285.1341
   4.568   0.5803   0.00796   0.00155  -0.0257   0.2981   0.9753  96.0306 285.9616
   4.653   0.5910   0.00799   0.00158  -0.0259   0.2973   0.9776  96.1142 286.6745
   4.739   0.6020   0.00804   0.00161  -0.0262   0.2965   0.9798  96.2029 287.4075
   4.824   0.6133   0.00808   0.00164  -0.0265   0.2956   0.9819  96.2942 288.1502
   4.910   0.6255   0.00813   0.00167  -0.0271   0.2947   0.9836  96.3895 288.7510
   4.995   0.6379   0.00819   0.00170  -0.0277   0.2937   0.9849  96.4879 289.2588
   5.080   0.6505   0.00824   0.00174  -0.0283   0.2928   0.9859  96.5866 289.6593
   5.166   0.6626   0.00830   0.00177  -0.0289   0.2919   0.9869  96.6831 290.0623
   5.251   0.6761   0.00837   0.00180  -0.0298   0.2909   0.9874  96.7836 290.2814
   5.337   0.6893   0.00844   0.00184  -0.0306   0.2900   0.9880  96.8853 290.5676
   5.422   0.7014   0.00852   0.00187  -0.0312   0.2890   0.9890  96.9896 291.0072
   5.508   0.7150   0.00856   0.00190  -0.0321   0.2882   0.9895  97.0677 291.2251
   5.593   0.7283   0.00860   0.00193  -0.0329   0.2875   0.9901  97.1478 291.5087
   5.678   0.7411   0.00865   0.00196  -0.0336   0.2867   0.9910  97.2287 291.9458
   5.764   0.7553   0.00870   0.00199  -0.0346   0.2859   0.9916  97.3123 292.2722
   5.849   0.7693   0.00875   0.00202  -0.0356   0.2851   0.9924  97.3953 292.6794
   5.935   0.7826   0.00880   0.00205  -0.0364   0.2844   0.9932  97.4758 293.1201
   6.020   0.7958   0.00885   0.00208  -0.0372   0.2836   0.9937  97.5549 293.4322
   6.106   0.8081   0.00890   0.00211  -0.0379   0.2829   0.9943  97.6313 293.7904
   6.191   0.8204   0.00895   0.00213  -0.0385   0.2822   0.9948  97.7072 294.1380
   6.276   0.8333   0.00901   0.00216  -0.0393   0.2815   0.9953  97.7862 294.4930
   6.362   0.8459   0.00908   0.00219  -0.0400   0.2807   0.9960  97.8697 294.9627
   6.447   0.8588   0.00916   0.00222  -0.0408   0.2797   0.9965  97.9694 295.3555
   6.533   0.8717   0.00920   0.00225  -0.0415   0.2789   0.9970  98.0628 295.8110
   6.618   0.8851   0.00922   0.00226  -0.0424   0.2778   0.9975  98.1758 296.3037
   6.704   0.8992   0.00924   0.00227  -0.0434   0.2765   0.9982  98.3125 296.9438
   6.789   0.9141   0.00927   0.00228  -0.0446   0.2752   0.9988  98.4563 297.7692
   6.874   0.9293   0.00931   0.00229  -0.0458   0.2739   0.9995  98.5901 298.9523
   6.960   0.9425   0.00935   0.00231  -0.0467   0.2728   1.0000  98.7098 301.0000
   7.045   0.9505   0.00941   0.00232  -0.0464   0.2719   1.0000  98.8094 301.0000
   7.131   0.9584   0.00947   0.00234  -0.0461   0.2708   1.0000  98.9221 301.0000
   7.216   0.9664   0.00953   0.00236  -0.0458   0.2698   1.0000  99.0375 301.0000
   7.301   0.9749   0.00953   0.00236  -0.0456   0.2687   1.0000  99.1497 301.0000
   7.387   0.9832   0.00955   0.00236  -0.0454   0.2675   1.0000  99.2781 301.0000
   7.472   0.9915   0.00957   0.00236  -0.0452   0.2664   1.0000  99.4076 301.0000
   7.558   0.9997   0.00960   0.00236  -0.0449   0.2652   1.0000  99.5367 301.0000
   7.643   1.0077   0.00964   0.00237  -0.0447   0.2639   1.0000  99.6684 301.0000
   7.729   1.0156   0.00969   0.00238  -0.0444   0.2628   1.0000  99.7956 301.0000
   7.814   1.0233   0.00975   0.00239  -0.0440   0.2616   1.0000  99.9273 301.0000
   7.899   1.0311   0.00980   0.00240  -0.0437   0.2604   1.0000 100.0564 301.0000
   7.985   1.0394   0.00981   0.00240  -0.0435   0.2592   1.0000 100.1846 301.0000
   8.070   1.0476   0.00982   0.00240  -0.0432   0.2579   1.0000 100.3277 301.0000
   8.156   1.0557   0.00985   0.00240  -0.0430   0.2565   1.0000 100.4759 301.0000
   8.241   1.0636   0.00988   0.00240  -0.0427   0.2552   1.0000 100.6209 301.0000
   8.327   1.0714   0.00992   0.00241  -0.0423   0.2540   1.0000 100.7588 301.0000
   8.412   1.0790   0.00998   0.00242  -0.0420   0.2528   1.0000 100.8907 301.0000
   8.498   1.0864   0.01004   0.00243  -0.0416   0.2516   1.0000 101.0177 301.0000
   8.583   1.0945   0.01006   0.00243  -0.0413   0.2505   1.0000 101.1440 301.0000
   8.668   1.1024   0.01008   0.00243  -0.0410   0.2491   1.0000 101.2967 301.0000
   8.754   1.1103   0.01011   0.00243  -0.0407   0.2475   1.0000 101.4674 301.0000
   8.839   1.1180   0.01015   0.00243  -0.0404   0.2460   1.0000 101.6414 301.0000
   8.925   1.1254   0.01020   0.00244  -0.0400   0.2445   1.0000 101.8098 301.0000
   9.010   1.1326   0.01026   0.00245  -0.0396   0.2430   1.0000 101.9755 301.0000
   9.095   1.1405   0.01029   0.00245  -0.0393   0.2415   1.0000 102.1376 301.0000
   9.181   1.1482   0.01032   0.00245  -0.0390   0.2398   1.0000 102.3275 301.0000
   9.266   1.1558   0.01036   0.00245  -0.0386   0.2380   1.0000 102.5329 301.0000
   9.352   1.1633   0.01040   0.00246  -0.0382   0.2361   1.0000 102.7429 301.0000
   9.437   1.1704   0.01047   0.00247  -0.0378   0.2342   1.0000 102.9560 301.0000
   9.523   1.1781   0.01050   0.00247  -0.0374   0.2322   1.0000 103.1817 301.0000
   9.608   1.1858   0.01054   0.00247  -0.0371   0.2297   1.0000 103.4736 301.0000
   9.694   1.1932   0.01059   0.00247  -0.0367   0.2266   1.0000 103.8212 301.0000
   9.779   1.2005   0.01065   0.00247  -0.0363   0.2233   1.0000 104.1963 301.0000
   9.864   1.2078   0.01071   0.00247  -0.0359   0.2191   1.0000 104.6832 301.0000
   9.950   1.2148   0.01080   0.00248  -0.0355   0.2146   1.0000 105.2040 301.0000
  10.035   1.2217   0.01089   0.00249  -0.0351   0.2087   1.0000 105.8946 301.0000
  10.121   1.2285   0.01099   0.00251  -0.0346   0.2009   1.0000 106.8288 301.0000
  10.206   1.2342   0.01118   0.00256  -0.0340   0.1908   1.0000 108.0363 301.0000
  10.291   1.2392   0.01141   0.00264  -0.0333   0.1760   1.0000 109.8657 301.0000
  10.377   1.2421   0.01180   0.00281  -0.0323   0.1570   1.0000 112.3101 301.0000
  10.462   1.2434   0.01231   0.00308  -0.0310   0.1330   1.0000 115.5685 301.0000
  10.548   1.2427   0.01302   0.00348  -0.0295   0.1040   1.0000 119.8569 301.0000
  10.633   1.2448   0.01353   0.00378  -0.0285   0.0854   1.0000 122.8880 301.0000
  10.719   1.2486   0.01393   0.00401  -0.0277   0.0726   1.0000 125.1514 301.0000
  10.804   1.2536   0.01424   0.00418  -0.0271   0.0641   1.0000 126.7561 301.0000
  10.889   1.2591   0.01451   0.00434  -0.0265   0.0577   1.0000 128.0329 301.0000
  11.060   1.2717   0.01495   0.00457  -0.0257   0.0495   1.0000 129.7823 301.0000
  11.146   1.2783   0.01514   0.00467  -0.0253   0.0465   1.0000 130.4410 301.0000
  11.231   1.2848   0.01534   0.00478  -0.0249   0.0440   1.0000 131.0064 301.0000
  11.317   1.2917   0.01550   0.00486  -0.0246   0.0421   1.0000 131.4727 301.0000
  11.402   1.2983   0.01569   0.00496  -0.0242   0.0402   1.0000 131.9057 301.0000
  11.487   1.3052   0.01585   0.00504  -0.0239   0.0387   1.0000 132.2832 301.0000
  11.573   1.3121   0.01602   0.00513  -0.0235   0.0371   1.0000 132.6866 301.0000
  11.658   1.3187   0.01620   0.00523  -0.0232   0.0357   1.0000 133.0424 301.0000
  11.744   1.3256   0.01636   0.00531  -0.0229   0.0345   1.0000 133.3613 301.0000
  11.829   1.3322   0.01654   0.00540  -0.0225   0.0333   1.0000 133.6763 301.0000
  11.915   1.3386   0.01673   0.00550  -0.0221   0.0322   1.0000 133.9665 301.0000
  12.000   1.3454   0.01689   0.00558  -0.0218   0.0313   1.0000 134.2092 301.0000
