  
       XFOIL         Version 6.99
  
 Calculated polar for: Repaneled_Airfoil                               
  
 1 1 Reynolds number fixed          Mach number fixed         
  
 xtrf =   1.000 (top)        1.000 (bottom)  
 Mach =   0.000     Re =     1.000 e 6     Ncrit =   9.000  9.000
  
   alpha    CL        CD       CDp       CM     Top_Xtr  Bot_Xtr  Top_Itr  Bot_Itr
  ------ -------- --------- --------- -------- -------- -------- -------- --------
  -5.000  -0.2509   0.00943   0.00195  -0.0697   0.8867   0.0324  33.8001 168.2812
  -4.915  -0.2416   0.00936   0.00190  -0.0696   0.8835   0.0332  34.2780 168.4892
  -4.829  -0.2324   0.00929   0.00185  -0.0695   0.8796   0.0340  34.8434 168.7006
  -4.744  -0.2231   0.00923   0.00180  -0.0695   0.8750   0.0347  35.5242 168.9001
  -4.658  -0.2139   0.00916   0.00174  -0.0693   0.8690   0.0355  36.3704 169.0866
  -4.573  -0.2049   0.00909   0.00169  -0.0692   0.8605   0.0363  37.5572 169.2888
  -4.487  -0.1972   0.00905   0.00157  -0.0686   0.8237   0.0370  42.3882 169.4888
  -4.402  -0.2031   0.01007   0.00168  -0.0655   0.5787   0.0373  68.4679 169.5411
  -4.317  -0.1967   0.01026   0.00169  -0.0649   0.5234   0.0380  73.7831 169.7249
  -4.231  -0.1890   0.01037   0.00169  -0.0646   0.4888   0.0387  77.0928 169.9066
  -4.146  -0.1809   0.01043   0.00167  -0.0644   0.4620   0.0396  79.6511 170.1275
  -4.060  -0.1725   0.01047   0.00167  -0.0642   0.4405   0.0409  81.7181 170.4324
  -3.975  -0.1639   0.01052   0.00167  -0.0640   0.4226   0.0423  83.4433 170.7848
  -3.889  -0.1551   0.01055   0.00167  -0.0638   0.4074   0.0438  84.9144 171.1300
  -3.804  -0.1463   0.01058   0.00169  -0.0637   0.3947   0.0454  86.1541 171.4901
  -3.719  -0.1372   0.01063   0.00171  -0.0636   0.3836   0.0469  87.2443 171.8418
  -3.633  -0.1281   0.01065   0.00171  -0.0635   0.3739   0.0483  88.1922 172.1468
  -3.548  -0.1191   0.01066   0.00172  -0.0635   0.3654   0.0495  89.0385 172.4265
  -3.462  -0.1099   0.01068   0.00172  -0.0634   0.3576   0.0507  89.8089 172.6768
  -3.377  -0.1007   0.01068   0.00170  -0.0633   0.3509   0.0515  90.4815 172.8699
  -3.292  -0.0915   0.01068   0.00167  -0.0632   0.3448   0.0523  91.0909 173.0298
  -3.206  -0.0825   0.01063   0.00165  -0.0631   0.3391   0.0532  91.6665 173.2285
  -3.121  -0.0733   0.01062   0.00164  -0.0630   0.3341   0.0541  92.1712 173.4114
  -3.035  -0.0640   0.01061   0.00162  -0.0630   0.3293   0.0550  92.6616 173.6075
  -2.950  -0.0548   0.01061   0.00161  -0.0629   0.3251   0.0560  93.0869 173.8125
  -2.864  -0.0454   0.01061   0.00158  -0.0628   0.3211   0.0569  93.4946 173.9957
  -2.779  -0.0363   0.01058   0.00157  -0.0628   0.3174   0.0580  93.8708 174.2131
  -2.693  -0.0269   0.01056   0.00156  -0.0627   0.3142   0.0590  94.2074 174.4158
  -2.608  -0.0175   0.01056   0.00156  -0.0627   0.3109   0.0600  94.5471 174.6300
  -2.523  -0.0082   0.01056   0.00154  -0.0626   0.3078   0.0611  94.8618 174.8475
  -2.437   0.0012   0.01055   0.00152  -0.0625   0.3051   0.0621  95.1399 175.0447
  -2.352   0.0105   0.01052   0.00151  -0.0625   0.3025   0.0632  95.4152 175.2585
  -2.266   0.0198   0.01051   0.00151  -0.0624   0.2999   0.0642  95.6810 175.4635
  -2.181   0.0292   0.01051   0.00150  -0.0624   0.2976   0.0653  95.9249 175.6797
  -2.095   0.0386   0.01051   0.00149  -0.0623   0.2955   0.0664  96.1449 175.8912
  -2.010   0.0480   0.01048   0.00147  -0.0623   0.2934   0.0675  96.3692 176.0908
  -1.925   0.0574   0.01046   0.00146  -0.0622   0.2913   0.0686  96.5909 176.3010
  -1.839   0.0668   0.01046   0.00146  -0.0622   0.2892   0.0697  96.8018 176.5159
  -1.754   0.0761   0.01047   0.00146  -0.0621   0.2873   0.0710  97.0021 176.7505
  -1.668   0.0857   0.01047   0.00145  -0.0621   0.2856   0.0722  97.1827 176.9718
  -1.583   0.0951   0.01044   0.00144  -0.0620   0.2838   0.0734  97.3726 177.1980
  -1.498   0.1045   0.01043   0.00144  -0.0620   0.2821   0.0746  97.5615 177.4133
  -1.412   0.1139   0.01043   0.00144  -0.0619   0.2804   0.0758  97.7430 177.6391
  -1.327   0.1233   0.01045   0.00143  -0.0619   0.2787   0.0771  97.9173 177.8701
  -1.241   0.1327   0.01044   0.00142  -0.0618   0.2772   0.0783  98.0753 178.0872
  -1.156   0.1422   0.01042   0.00142  -0.0618   0.2758   0.0796  98.2335 178.3078
  -1.070   0.1517   0.01041   0.00143  -0.0618   0.2742   0.0809  98.3968 178.5319
  -0.985   0.1612   0.01042   0.00142  -0.0617   0.2727   0.0822  98.5581 178.7680
  -0.899   0.1707   0.01043   0.00141  -0.0617   0.2713   0.0834  98.7137 178.9798
  -0.814   0.1800   0.01041   0.00141  -0.0616   0.2699   0.0847  98.8621 179.1987
  -0.729   0.1893   0.01042   0.00141  -0.0616   0.2685   0.0859  99.0093 179.4033
  -0.643   0.1989   0.01041   0.00141  -0.0616   0.2673   0.0872  99.1392 179.6224
  -0.558   0.2084   0.01041   0.00140  -0.0615   0.2660   0.0885  99.2819 179.8468
  -0.472   0.2179   0.01041   0.00139  -0.0615   0.2646   0.0898  99.4288 180.0552
  -0.387   0.2274   0.01040   0.00139  -0.0615   0.2633   0.0911  99.5734 180.2739
  -0.301   0.2368   0.01041   0.00140  -0.0614   0.2620   0.0924  99.7140 180.4972
  -0.216   0.2462   0.01042   0.00140  -0.0614   0.2607   0.0939  99.8512 180.7396
  -0.131   0.2556   0.01045   0.00139  -0.0613   0.2594   0.0953  99.9920 180.9726
  -0.045   0.2651   0.01043   0.00140  -0.0613   0.2584   0.0968 100.1074 181.2175
   0.040   0.2747   0.01042   0.00140  -0.0613   0.2573   0.0983 100.2322 181.4573
   0.126   0.2842   0.01043   0.00140  -0.0612   0.2561   0.0999 100.3613 181.7090
   0.211   0.2937   0.01044   0.00140  -0.0612   0.2549   0.1014 100.4894 181.9413
   0.296   0.3031   0.01043   0.00140  -0.0612   0.2538   0.1028 100.6116 182.1610
   0.382   0.3126   0.01043   0.00140  -0.0611   0.2527   0.1041 100.7275 182.3726
   0.467   0.3220   0.01045   0.00140  -0.0611   0.2517   0.1056 100.8400 182.5955
   0.553   0.3314   0.01047   0.00140  -0.0610   0.2507   0.1070 100.9550 182.8257
   0.638   0.3408   0.01048   0.00140  -0.0610   0.2498   0.1084 101.0555 183.0384
   0.724   0.3503   0.01046   0.00140  -0.0609   0.2489   0.1099 101.1518 183.2651
   0.809   0.3599   0.01046   0.00140  -0.0609   0.2480   0.1114 101.2543 183.4926
   0.894   0.3694   0.01047   0.00140  -0.0609   0.2470   0.1130 101.3599 183.7384
   0.980   0.3789   0.01048   0.00140  -0.0609   0.2460   0.1146 101.4671 183.9802
   1.065   0.3883   0.01047   0.00140  -0.0608   0.2451   0.1164 101.5727 184.2416
   1.151   0.3978   0.01048   0.00141  -0.0608   0.2442   0.1182 101.6758 184.5057
   1.236   0.4072   0.01050   0.00141  -0.0607   0.2433   0.1200 101.7767 184.7798
   1.322   0.4166   0.01052   0.00141  -0.0607   0.2423   0.1218 101.8781 185.0403
   1.407   0.4258   0.01054   0.00142  -0.0606   0.2414   0.1237 101.9842 185.3224
   1.492   0.4354   0.01054   0.00142  -0.0606   0.2407   0.1258 102.0621 185.6174
   1.578   0.4449   0.01055   0.00142  -0.0606   0.2400   0.1278 102.1445 185.9071
   1.663   0.4544   0.01054   0.00142  -0.0605   0.2392   0.1298 102.2305 186.1979
   1.749   0.4639   0.01054   0.00142  -0.0605   0.2384   0.1320 102.3185 186.5069
   1.834   0.4734   0.01055   0.00142  -0.0605   0.2376   0.1343 102.4069 186.8362
   1.920   0.4828   0.01055   0.00142  -0.0605   0.2368   0.1368 102.4947 187.1806
   2.005   0.4922   0.01055   0.00142  -0.0604   0.2361   0.1398 102.5812 187.5862
   2.176   0.5110   0.01056   0.00142  -0.0603   0.2346   0.1480 102.7501 188.7066
   2.261   0.5204   0.01055   0.00142  -0.0603   0.2338   0.1569 102.8357 189.8924
   2.347   0.5276   0.00963   0.00130  -0.0605   0.2331   0.4909 102.9140 225.1403
   2.432   0.5362   0.00947   0.00132  -0.0605   0.2323   0.5604 103.0061 231.7909
   2.518   0.5454   0.00940   0.00136  -0.0604   0.2317   0.5950 103.0694 235.1366
   2.603   0.5547   0.00938   0.00140  -0.0603   0.2311   0.6172 103.1411 237.3039
   2.688   0.5641   0.00938   0.00143  -0.0603   0.2304   0.6310 103.2183 238.6633
   2.774   0.5735   0.00940   0.00146  -0.0602   0.2297   0.6416 103.2982 239.7102
   2.859   0.5829   0.00942   0.00149  -0.0602   0.2290   0.6500 103.3784 240.5528
   2.945   0.5924   0.00945   0.00152  -0.0601   0.2283   0.6569 103.4570 241.2485
   3.030   0.6018   0.00949   0.00155  -0.0601   0.2277   0.6631 103.5335 241.8657
   3.116   0.6112   0.00952   0.00157  -0.0600   0.2270   0.6678 103.6076 242.3468
   3.201   0.6206   0.00957   0.00160  -0.0600   0.2264   0.6723 103.6799 242.8038
   3.286   0.6300   0.00961   0.00162  -0.0599   0.2257   0.6759 103.7514 243.1697
   3.372   0.6393   0.00966   0.00165  -0.0598   0.2251   0.6793 103.8235 243.5168
   3.457   0.6487   0.00972   0.00168  -0.0598   0.2244   0.6831 103.8988 243.9070
   3.543   0.6578   0.00979   0.00171  -0.0597   0.2237   0.6861 103.9801 244.2139
   3.628   0.6672   0.00984   0.00175  -0.0596   0.2232   0.6891 104.0378 244.5228
   3.714   0.6768   0.00987   0.00177  -0.0596   0.2228   0.6923 104.0937 244.8547
   3.799   0.6862   0.00991   0.00180  -0.0596   0.2222   0.6949 104.1533 245.1181
   3.884   0.6956   0.00995   0.00183  -0.0595   0.2217   0.6970 104.2159 245.3436
   3.970   0.7051   0.00999   0.00185  -0.0595   0.2211   0.6992 104.2804 245.5662
   4.055   0.7146   0.01003   0.00187  -0.0594   0.2206   0.7012 104.3456 245.7809
   4.226   0.7334   0.01012   0.00192  -0.0593   0.2195   0.7050 104.4744 246.1723
   4.312   0.7427   0.01016   0.00195  -0.0593   0.2189   0.7067 104.5372 246.3557
   4.397   0.7521   0.01021   0.00197  -0.0592   0.2184   0.7085 104.5993 246.5396
   4.482   0.7615   0.01026   0.00199  -0.0592   0.2178   0.7102 104.6611 246.7229
   4.568   0.7708   0.01032   0.00201  -0.0591   0.2173   0.7119 104.7226 246.9001
   4.653   0.7801   0.01037   0.00203  -0.0591   0.2168   0.7133 104.7849 247.0469
   4.739   0.7893   0.01043   0.00206  -0.0590   0.2162   0.7145 104.8494 247.1747
   4.824   0.7984   0.01050   0.00209  -0.0589   0.2156   0.7159 104.9184 247.3187
   4.910   0.8074   0.01059   0.00213  -0.0588   0.2150   0.7174 104.9939 247.4772
   4.995   0.8169   0.01063   0.00216  -0.0588   0.2146   0.7190 105.0376 247.6520
   5.080   0.8263   0.01067   0.00218  -0.0587   0.2142   0.7207 105.0829 247.8341
   5.251   0.8451   0.01076   0.00223  -0.0586   0.2133   0.7235 105.1843 248.1233
   5.337   0.8544   0.01080   0.00226  -0.0586   0.2129   0.7246 105.2383 248.2498
   5.422   0.8637   0.01084   0.00229  -0.0585   0.2124   0.7259 105.2951 248.3842
   5.508   0.8730   0.01089   0.00231  -0.0585   0.2119   0.7272 105.3539 248.5253
   5.593   0.8823   0.01093   0.00233  -0.0584   0.2114   0.7286 105.4139 248.6729
   5.678   0.8916   0.01098   0.00235  -0.0584   0.2109   0.7299 105.4741 248.8167
   5.764   0.9010   0.01103   0.00237  -0.0583   0.2103   0.7312 105.5337 248.9582
   5.849   0.9102   0.01108   0.00239  -0.0583   0.2098   0.7323 105.5921 249.0753
   5.935   0.9195   0.01112   0.00242  -0.0582   0.2094   0.7333 105.6492 249.1840
   6.020   0.9286   0.01117   0.00244  -0.0582   0.2089   0.7343 105.7058 249.2928
   6.106   0.9378   0.01123   0.00246  -0.0581   0.2084   0.7354 105.7620 249.4086
   6.191   0.9469   0.01130   0.00249  -0.0580   0.2079   0.7366 105.8185 249.5356
   6.276   0.9560   0.01137   0.00252  -0.0579   0.2074   0.7378 105.8763 249.6654
   6.362   0.9650   0.01147   0.00255  -0.0578   0.2069   0.7391 105.9414 249.8078
   6.447   0.9740   0.01156   0.00258  -0.0578   0.2063   0.7405 106.0088 249.9609
   6.533   0.9833   0.01159   0.00261  -0.0577   0.2059   0.7417 106.0533 250.0913
   6.618   0.9926   0.01161   0.00263  -0.0577   0.2054   0.7428 106.1124 250.2166
   6.704   1.0020   0.01163   0.00264  -0.0576   0.2048   0.7440 106.1866 250.3414
   6.789   1.0113   0.01166   0.00265  -0.0576   0.2041   0.7451 106.2715 250.4595
   6.874   1.0206   0.01169   0.00265  -0.0576   0.2033   0.7460 106.3608 250.5619
   6.960   1.0299   0.01172   0.00266  -0.0575   0.2026   0.7469 106.4477 250.6614
   7.045   1.0392   0.01176   0.00266  -0.0575   0.2019   0.7478 106.5278 250.7614
   7.131   1.0485   0.01180   0.00267  -0.0574   0.2013   0.7487 106.6041 250.8608
   7.216   1.0577   0.01184   0.00267  -0.0574   0.2006   0.7496 106.6810 250.9575
   7.301   1.0668   0.01189   0.00268  -0.0573   0.2000   0.7504 106.7624 251.0410
   7.387   1.0758   0.01194   0.00269  -0.0573   0.1992   0.7510 106.8501 251.1165
   7.472   1.0847   0.01202   0.00271  -0.0572   0.1984   0.7517 106.9483 251.1934
   7.558   1.0937   0.01207   0.00272  -0.0571   0.1976   0.7525 107.0382 251.2735
   7.643   1.1032   0.01207   0.00272  -0.0571   0.1968   0.7532 107.1375 251.3571
   7.729   1.1126   0.01208   0.00270  -0.0571   0.1957   0.7540 107.2698 251.4437
   7.814   1.1220   0.01208   0.00268  -0.0570   0.1945   0.7548 107.4241 251.5328
   7.899   1.1314   0.01209   0.00266  -0.0570   0.1931   0.7556 107.5898 251.6226
   7.985   1.1405   0.01212   0.00263  -0.0570   0.1916   0.7564 107.7681 251.7131
   8.070   1.1493   0.01220   0.00262  -0.0569   0.1899   0.7572 107.9688 251.8030
   8.156   1.1589   0.01220   0.00260  -0.0569   0.1885   0.7580 108.1444 251.8928
   8.241   1.1684   0.01220   0.00258  -0.0569   0.1869   0.7588 108.3480 251.9816
   8.327   1.1776   0.01222   0.00256  -0.0569   0.1852   0.7595 108.5516 252.0602
   8.412   1.1867   0.01225   0.00255  -0.0569   0.1837   0.7602 108.7388 252.1395
   8.498   1.1956   0.01231   0.00255  -0.0568   0.1824   0.7610 108.9005 252.2235
   8.583   1.2045   0.01237   0.00256  -0.0567   0.1813   0.7618 109.0327 252.3120
   8.668   1.2138   0.01239   0.00256  -0.0567   0.1803   0.7626 109.1503 252.4056
   8.754   1.2230   0.01242   0.00256  -0.0566   0.1792   0.7635 109.2967 252.5021
   8.839   1.2321   0.01246   0.00256  -0.0566   0.1778   0.7644 109.4678 252.6006
   8.925   1.2412   0.01250   0.00256  -0.0565   0.1763   0.7652 109.6544 252.6993
   9.010   1.2502   0.01256   0.00255  -0.0565   0.1747   0.7661 109.8503 252.7968
   9.095   1.2591   0.01262   0.00255  -0.0564   0.1732   0.7669 110.0450 252.8913
   9.181   1.2683   0.01266   0.00255  -0.0564   0.1715   0.7678 110.2634 252.9826
   9.266   1.2773   0.01270   0.00255  -0.0563   0.1694   0.7685 110.5232 253.0627
   9.352   1.2861   0.01276   0.00255  -0.0562   0.1673   0.7692 110.7978 253.1428
   9.437   1.2949   0.01284   0.00256  -0.0561   0.1653   0.7699 111.0545 253.2272
   9.523   1.3039   0.01288   0.00256  -0.0561   0.1631   0.7707 111.3347 253.3162
   9.608   1.3127   0.01295   0.00257  -0.0560   0.1605   0.7715 111.6696 253.4087
   9.694   1.3213   0.01304   0.00259  -0.0559   0.1579   0.7723 112.0110 253.5044
   9.779   1.3303   0.01310   0.00260  -0.0558   0.1549   0.7732 112.4106 253.6020
   9.950   1.3474   0.01330   0.00264  -0.0556   0.1464   0.7749 113.5404 253.7979
  10.035   1.3558   0.01344   0.00268  -0.0555   0.1418   0.7758 114.1673 253.8939
  10.121   1.3640   0.01361   0.00274  -0.0553   0.1350   0.7766 115.1102 253.9872
  10.206   1.3712   0.01390   0.00288  -0.0551   0.1226   0.7773 116.8818 254.0706
  10.291   1.3764   0.01447   0.00321  -0.0546   0.1019   0.7780 120.0073 254.1551
  10.377   1.3791   0.01537   0.00382  -0.0538   0.0734   0.7788 124.8453 254.2436
  10.548   1.3909   0.01620   0.00436  -0.0528   0.0543   0.7805 128.5850 254.4446
  10.633   1.3977   0.01648   0.00454  -0.0525   0.0489   0.7815 129.7577 254.5544
  10.719   1.4046   0.01675   0.00471  -0.0521   0.0444   0.7825 130.7695 254.6670
  10.804   1.4117   0.01698   0.00485  -0.0518   0.0412   0.7835 131.5268 254.7809
  10.889   1.4188   0.01720   0.00498  -0.0515   0.0386   0.7844 132.1583 254.8932
  11.060   1.4333   0.01760   0.00521  -0.0509   0.0338   0.7862 133.3874 255.0965
  11.146   1.4403   0.01781   0.00533  -0.0506   0.0319   0.7870 133.9085 255.1936
  11.231   1.4476   0.01799   0.00544  -0.0503   0.0304   0.7879 134.3236 255.2944
  11.317   1.4547   0.01818   0.00555  -0.0500   0.0289   0.7888 134.7286 255.3990
  11.402   1.4618   0.01836   0.00566  -0.0496   0.0277   0.7897 135.0778 255.5103
  11.487   1.4692   0.01853   0.00575  -0.0494   0.0265   0.7907 135.4499 255.6281
  11.573   1.4762   0.01872   0.00586  -0.0490   0.0251   0.7918 135.8595 255.7502
  11.658   1.4832   0.01890   0.00596  -0.0487   0.0240   0.7928 136.2007 255.8749
  11.744   1.4902   0.01909   0.00606  -0.0484   0.0229   0.7939 136.5357 255.9985
  11.829   1.4970   0.01928   0.00618  -0.0480   0.0219   0.7948 136.8579 256.1105
  11.915   1.5038   0.01946   0.00628  -0.0477   0.0211   0.7958 137.1249 256.2299
  12.000   1.5107   0.01963   0.00638  -0.0473   0.0204   0.7969 137.3824 256.3567
