  
       XFOIL         Version 6.99
  
 Calculated polar for: Repaneled_Airfoil                               
  
 1 1 Reynolds number fixed          Mach number fixed         
  
 xtrf =   1.000 (top)        1.000 (bottom)  
 Mach =   0.000     Re =     1.000 e 6     Ncrit =   9.000  9.000
  
   alpha    CL        CD       CDp       CM     Top_Xtr  Bot_Xtr  Top_Itr  Bot_Itr
  ------ -------- --------- --------- -------- -------- -------- -------- --------
  -5.000  -0.2126   0.00815   0.00137  -0.0601   0.8982   0.0868  31.9607 179.4561
  -4.915  -0.2032   0.00811   0.00134  -0.0600   0.8957   0.0898  32.3455 179.9737
  -4.829  -0.1938   0.00804   0.00131  -0.0600   0.8934   0.0931  32.7017 180.5148
  -4.744  -0.1844   0.00800   0.00127  -0.0599   0.8916   0.0965  32.9925 181.0702
  -4.658  -0.1750   0.00793   0.00125  -0.0599   0.8889   0.1002  33.3972 181.6590
  -4.573  -0.1656   0.00788   0.00122  -0.0598   0.8865   0.1038  33.7557 182.2374
  -4.487  -0.1562   0.00783   0.00118  -0.0597   0.8843   0.1079  34.0866 182.8673
  -4.402  -0.1468   0.00777   0.00115  -0.0597   0.8814   0.1121  34.5218 183.5054
  -4.317  -0.1374   0.00771   0.00112  -0.0596   0.8788   0.1166  34.9033 184.1892
  -4.231  -0.1280   0.00766   0.00109  -0.0595   0.8756   0.1216  35.3671 184.9293
  -4.146  -0.1187   0.00760   0.00106  -0.0594   0.8725   0.1268  35.8189 185.6838
  -4.060  -0.1094   0.00753   0.00102  -0.0594   0.8692   0.1324  36.2812 186.4788
  -3.975  -0.1001   0.00747   0.00099  -0.0593   0.8658   0.1385  36.7579 187.3227
  -3.889  -0.0908   0.00741   0.00095  -0.0592   0.8626   0.1452  37.2034 188.2457
  -3.804  -0.0815   0.00734   0.00092  -0.0591   0.8592   0.1532  37.6782 189.3216
  -3.719  -0.0722   0.00726   0.00088  -0.0590   0.8563   0.1631  38.0659 190.6189
  -3.633  -0.0629   0.00717   0.00084  -0.0590   0.8530   0.1754  38.5124 192.1890
  -3.548  -0.0538   0.00707   0.00080  -0.0589   0.8503   0.1918  38.8787 194.2144
  -3.462  -0.0447   0.00694   0.00076  -0.0589   0.8474   0.2136  39.2659 196.8021
  -3.377  -0.0357   0.00680   0.00072  -0.0588   0.8444   0.2393  39.6665 199.7385
  -3.292  -0.0267   0.00666   0.00068  -0.0587   0.8418   0.2665  40.0021 202.7296
  -3.206  -0.0176   0.00654   0.00066  -0.0587   0.8386   0.2921  40.4172 205.4551
  -3.121  -0.0084   0.00644   0.00064  -0.0586   0.8358   0.3144  40.7839 207.7788
  -3.035   0.0009   0.00636   0.00062  -0.0586   0.8331   0.3333  41.1326 209.7018
  -2.950   0.0103   0.00628   0.00061  -0.0585   0.8299   0.3501  41.5354 211.3931
  -2.864   0.0197   0.00623   0.00060  -0.0585   0.8271   0.3649  41.8884 212.8744
  -2.779   0.0292   0.00617   0.00059  -0.0584   0.8241   0.3781  42.2592 214.1803
  -2.693   0.0387   0.00613   0.00058  -0.0584   0.8211   0.3903  42.6367 215.3762
  -2.608   0.0481   0.00609   0.00057  -0.0584   0.8184   0.4017  42.9747 216.4913
  -2.523   0.0577   0.00605   0.00056  -0.0583   0.8151   0.4122  43.3783 217.5171
  -2.437   0.0672   0.00601   0.00056  -0.0583   0.8120   0.4221  43.7613 218.4769
  -2.352   0.0768   0.00598   0.00055  -0.0583   0.8090   0.4314  44.1294 219.3721
  -2.266   0.0864   0.00595   0.00054  -0.0582   0.8055   0.4405  44.5503 220.2509
  -2.181   0.0959   0.00593   0.00053  -0.0582   0.8024   0.4496  44.9262 221.1216
  -2.095   0.1056   0.00590   0.00053  -0.0582   0.7990   0.4586  45.3326 221.9938
  -2.010   0.1151   0.00587   0.00052  -0.0582   0.7956   0.4674  45.7340 222.8316
  -1.925   0.1247   0.00585   0.00052  -0.0581   0.7924   0.4756  46.1115 223.6148
  -1.839   0.1343   0.00583   0.00052  -0.0581   0.7887   0.4833  46.5441 224.3595
  -1.754   0.1438   0.00582   0.00051  -0.0581   0.7853   0.4912  46.9427 225.1095
  -1.668   0.1535   0.00579   0.00051  -0.0580   0.7814   0.4988  47.3885 225.8353
  -1.583   0.1630   0.00578   0.00050  -0.0580   0.7776   0.5060  47.8223 226.5302
  -1.498   0.1726   0.00576   0.00050  -0.0580   0.7739   0.5137  48.2517 227.2626
  -1.327   0.1917   0.00573   0.00049  -0.0579   0.7660   0.5294  49.1469 228.7679
  -1.241   0.2013   0.00572   0.00049  -0.0579   0.7617   0.5369  49.6323 229.4823
  -1.156   0.2108   0.00571   0.00048  -0.0578   0.7576   0.5442  50.0824 230.1849
  -1.070   0.2204   0.00570   0.00048  -0.0578   0.7530   0.5515  50.5906 230.8822
  -0.985   0.2299   0.00569   0.00048  -0.0577   0.7487   0.5585  51.0655 231.5588
  -0.899   0.2394   0.00568   0.00048  -0.0577   0.7439   0.5662  51.5897 232.2945
  -0.814   0.2488   0.00567   0.00048  -0.0576   0.7393   0.5746  52.0978 233.1067
  -0.729   0.2583   0.00566   0.00047  -0.0576   0.7340   0.5837  52.6743 233.9947
  -0.643   0.2677   0.00565   0.00047  -0.0575   0.7287   0.5932  53.2391 234.9123
  -0.558   0.2771   0.00564   0.00047  -0.0575   0.7230   0.6027  53.8477 235.8356
  -0.472   0.2865   0.00563   0.00048  -0.0574   0.7174   0.6123  54.4471 236.7818
  -0.387   0.2957   0.00563   0.00048  -0.0573   0.7118   0.6225  55.0405 237.7870
  -0.301   0.3051   0.00561   0.00048  -0.0572   0.7055   0.6331  55.6955 238.8339
  -0.216   0.3143   0.00561   0.00048  -0.0571   0.6991   0.6439  56.3601 239.9030
  -0.131   0.3235   0.00560   0.00048  -0.0570   0.6924   0.6548  57.0648 240.9924
  -0.045   0.3327   0.00560   0.00048  -0.0569   0.6851   0.6660  57.8092 242.1274
   0.040   0.3418   0.00559   0.00048  -0.0568   0.6777   0.6776  58.5677 243.3097
   0.126   0.3508   0.00558   0.00049  -0.0566   0.6701   0.6902  59.3460 244.5976
   0.211   0.3598   0.00558   0.00049  -0.0565   0.6621   0.7036  60.1519 245.9942
   0.296   0.3686   0.00557   0.00049  -0.0563   0.6541   0.7177  60.9584 247.4776
   0.382   0.3775   0.00557   0.00050  -0.0562   0.6457   0.7324  61.7922 249.0560
   0.467   0.3863   0.00556   0.00051  -0.0560   0.6369   0.7476  62.6672 250.7144
   0.553   0.3950   0.00555   0.00052  -0.0557   0.6277   0.7641  63.5820 252.5503
   0.638   0.4034   0.00555   0.00053  -0.0555   0.6181   0.7825  64.5261 254.6478
   0.724   0.4117   0.00554   0.00054  -0.0552   0.6080   0.8029  65.5189 257.0482
   0.809   0.4198   0.00553   0.00056  -0.0548   0.5976   0.8258  66.5266 259.8583
   0.894   0.4275   0.00552   0.00058  -0.0543   0.5874   0.8509  67.5247 263.1181
   0.980   0.4351   0.00551   0.00061  -0.0538   0.5768   0.8775  68.5484 266.8306
   1.065   0.4426   0.00553   0.00064  -0.0532   0.5659   0.9032  69.5927 270.7726
   1.151   0.4509   0.00557   0.00067  -0.0528   0.5548   0.9254  70.6628 274.5607
   1.236   0.4605   0.00563   0.00070  -0.0528   0.5429   0.9427  71.8018 277.8939
   1.322   0.4713   0.00571   0.00073  -0.0530   0.5307   0.9553  72.9698 280.6355
   1.407   0.4827   0.00579   0.00075  -0.0534   0.5181   0.9647  74.1776 282.9462
   1.492   0.4944   0.00588   0.00078  -0.0539   0.5054   0.9720  75.3901 284.9289
   1.578   0.5064   0.00597   0.00080  -0.0544   0.4930   0.9777  76.5744 286.6699
   1.663   0.5184   0.00607   0.00083  -0.0550   0.4805   0.9825  77.7641 288.3089
   1.834   0.5429   0.00627   0.00088  -0.0562   0.4542   0.9895  80.2808 291.1983
   1.920   0.5558   0.00638   0.00091  -0.0570   0.4403   0.9918  81.6109 292.3148
   2.005   0.5687   0.00649   0.00094  -0.0578   0.4270   0.9937  82.8942 293.4082
   2.091   0.5816   0.00659   0.00097  -0.0586   0.4145   0.9954  84.1064 294.5118
   2.176   0.5945   0.00669   0.00099  -0.0594   0.4027   0.9969  85.2486 295.6558
   2.261   0.6074   0.00678   0.00102  -0.0602   0.3914   0.9982  86.3474 296.9368
   2.347   0.6205   0.00688   0.00105  -0.0610   0.3804   0.9994  87.4302 298.6138
   2.432   0.6316   0.00697   0.00107  -0.0614   0.3701   1.0000  88.4400 301.0000
   2.518   0.6396   0.00705   0.00109  -0.0611   0.3611   1.0000  89.3340 301.0000
   2.603   0.6475   0.00713   0.00111  -0.0608   0.3525   1.0000  90.1875 301.0000
   2.688   0.6555   0.00722   0.00113  -0.0605   0.3444   1.0000  91.0047 301.0000
   2.774   0.6636   0.00729   0.00115  -0.0602   0.3364   1.0000  91.8118 301.0000
   2.859   0.6717   0.00736   0.00117  -0.0600   0.3291   1.0000  92.5496 301.0000
   2.945   0.6798   0.00744   0.00119  -0.0597   0.3222   1.0000  93.2446 301.0000
   3.030   0.6878   0.00752   0.00121  -0.0594   0.3155   1.0000  93.9363 301.0000
   3.116   0.6961   0.00758   0.00123  -0.0591   0.3091   1.0000  94.5957 301.0000
   3.201   0.7042   0.00766   0.00125  -0.0589   0.3031   1.0000  95.2169 301.0000
   3.286   0.7124   0.00773   0.00127  -0.0586   0.2972   1.0000  95.8330 301.0000
   3.372   0.7206   0.00780   0.00129  -0.0583   0.2917   1.0000  96.4063 301.0000
   3.543   0.7371   0.00794   0.00133  -0.0578   0.2812   1.0000  97.5095 301.0000
   3.628   0.7453   0.00801   0.00135  -0.0576   0.2763   1.0000  98.0345 301.0000
   3.714   0.7536   0.00807   0.00137  -0.0573   0.2714   1.0000  98.5602 301.0000
   3.799   0.7618   0.00815   0.00139  -0.0571   0.2668   1.0000  99.0521 301.0000
   3.884   0.7702   0.00821   0.00141  -0.0568   0.2623   1.0000  99.5471 301.0000
   3.970   0.7784   0.00829   0.00144  -0.0566   0.2579   1.0000 100.0154 301.0000
   4.055   0.7869   0.00835   0.00146  -0.0564   0.2536   1.0000 100.4926 301.0000
   4.226   0.8037   0.00848   0.00150  -0.0559   0.2453   1.0000 101.4058 301.0000
   4.312   0.8120   0.00856   0.00152  -0.0557   0.2412   1.0000 101.8605 301.0000
   4.397   0.8205   0.00862   0.00155  -0.0555   0.2375   1.0000 102.2796 301.0000
   4.482   0.8290   0.00869   0.00157  -0.0553   0.2336   1.0000 102.7189 301.0000
   4.568   0.8374   0.00876   0.00159  -0.0551   0.2300   1.0000 103.1161 301.0000
   4.653   0.8460   0.00882   0.00162  -0.0549   0.2261   1.0000 103.5649 301.0000
   4.739   0.8544   0.00890   0.00164  -0.0547   0.2222   1.0000 104.0149 301.0000
   4.824   0.8630   0.00897   0.00166  -0.0545   0.2182   1.0000 104.4722 301.0000
   4.910   0.8714   0.00905   0.00169  -0.0543   0.2142   1.0000 104.9332 301.0000
   4.995   0.8800   0.00912   0.00172  -0.0542   0.2104   1.0000 105.3847 301.0000
   5.080   0.8884   0.00920   0.00174  -0.0540   0.2063   1.0000 105.8593 301.0000
   5.166   0.8970   0.00927   0.00177  -0.0538   0.2026   1.0000 106.3010 301.0000
   5.251   0.9056   0.00935   0.00180  -0.0536   0.1984   1.0000 106.7949 301.0000
   5.337   0.9141   0.00942   0.00183  -0.0535   0.1947   1.0000 107.2411 301.0000
   5.422   0.9226   0.00950   0.00185  -0.0533   0.1908   1.0000 107.7203 301.0000
   5.508   0.9311   0.00959   0.00188  -0.0531   0.1870   1.0000 108.1769 301.0000
   5.593   0.9396   0.00967   0.00191  -0.0529   0.1827   1.0000 108.7060 301.0000
   5.678   0.9481   0.00976   0.00195  -0.0528   0.1784   1.0000 109.2355 301.0000
   5.764   0.9565   0.00985   0.00198  -0.0526   0.1734   1.0000 109.8619 301.0000
   5.849   0.9649   0.00994   0.00201  -0.0524   0.1686   1.0000 110.4790 301.0000
   5.935   0.9731   0.01005   0.00205  -0.0522   0.1637   1.0000 111.1054 301.0000
   6.020   0.9815   0.01015   0.00209  -0.0520   0.1584   1.0000 111.7951 301.0000
   6.106   0.9898   0.01025   0.00213  -0.0518   0.1531   1.0000 112.4953 301.0000
   6.191   0.9980   0.01037   0.00218  -0.0516   0.1475   1.0000 113.2345 301.0000
   6.276   1.0060   0.01050   0.00223  -0.0514   0.1420   1.0000 113.9761 301.0000
   6.362   1.0142   0.01061   0.00227  -0.0512   0.1363   1.0000 114.7728 301.0000
   6.447   1.0223   0.01074   0.00232  -0.0509   0.1301   1.0000 115.6351 301.0000
   6.533   1.0302   0.01088   0.00238  -0.0507   0.1240   1.0000 116.5148 301.0000
   6.618   1.0381   0.01102   0.00244  -0.0504   0.1184   1.0000 117.3381 301.0000
   6.704   1.0460   0.01116   0.00251  -0.0502   0.1126   1.0000 118.2010 301.0000
   6.789   1.0538   0.01131   0.00258  -0.0499   0.1067   1.0000 119.0958 301.0000
   6.874   1.0615   0.01146   0.00265  -0.0497   0.1015   1.0000 119.9185 301.0000
   6.960   1.0694   0.01160   0.00271  -0.0494   0.0964   1.0000 120.7295 301.0000
   7.045   1.0772   0.01175   0.00278  -0.0492   0.0915   1.0000 121.5350 301.0000
   7.131   1.0850   0.01190   0.00286  -0.0489   0.0869   1.0000 122.3049 301.0000
   7.216   1.0926   0.01206   0.00294  -0.0486   0.0827   1.0000 123.0174 301.0000
   7.301   1.1006   0.01220   0.00301  -0.0484   0.0786   1.0000 123.7433 301.0000
   7.387   1.1084   0.01234   0.00308  -0.0482   0.0748   1.0000 124.4295 301.0000
   7.472   1.1160   0.01250   0.00316  -0.0479   0.0711   1.0000 125.0983 301.0000
   7.558   1.1238   0.01265   0.00323  -0.0476   0.0678   1.0000 125.7270 301.0000
   7.643   1.1316   0.01279   0.00331  -0.0474   0.0648   1.0000 126.3063 301.0000
   7.729   1.1393   0.01295   0.00339  -0.0471   0.0617   1.0000 126.9166 301.0000
   7.814   1.1471   0.01309   0.00346  -0.0469   0.0589   1.0000 127.4709 301.0000
   7.899   1.1547   0.01325   0.00354  -0.0466   0.0563   1.0000 128.0068 301.0000
   7.985   1.1625   0.01338   0.00361  -0.0463   0.0540   1.0000 128.4836 301.0000
   8.070   1.1701   0.01355   0.00369  -0.0461   0.0519   1.0000 128.9361 301.0000
   8.156   1.1780   0.01367   0.00376  -0.0458   0.0500   1.0000 129.3485 301.0000
   8.241   1.1857   0.01381   0.00383  -0.0456   0.0481   1.0000 129.7755 301.0000
   8.327   1.1933   0.01396   0.00391  -0.0453   0.0464   1.0000 130.1469 301.0000
   8.412   1.2011   0.01409   0.00398  -0.0451   0.0448   1.0000 130.5172 301.0000
   8.498   1.2086   0.01425   0.00406  -0.0448   0.0433   1.0000 130.8698 301.0000
   8.583   1.2163   0.01439   0.00414  -0.0445   0.0420   1.0000 131.1796 301.0000
   8.668   1.2240   0.01453   0.00421  -0.0442   0.0407   1.0000 131.4911 301.0000
   8.754   1.2314   0.01469   0.00429  -0.0440   0.0395   1.0000 131.7902 301.0000
   8.839   1.2387   0.01484   0.00438  -0.0437   0.0383   1.0000 132.0622 301.0000
   8.925   1.2465   0.01496   0.00444  -0.0434   0.0373   1.0000 132.3183 301.0000
   9.010   1.2541   0.01510   0.00452  -0.0431   0.0363   1.0000 132.5849 301.0000
   9.095   1.2614   0.01526   0.00460  -0.0428   0.0353   1.0000 132.8350 301.0000
   9.181   1.2686   0.01543   0.00469  -0.0425   0.0344   1.0000 133.0597 301.0000
   9.266   1.2762   0.01555   0.00476  -0.0422   0.0337   1.0000 133.2669 301.0000
   9.352   1.2837   0.01570   0.00483  -0.0419   0.0329   1.0000 133.4806 301.0000
   9.437   1.2908   0.01585   0.00492  -0.0416   0.0321   1.0000 133.6861 301.0000
   9.523   1.2978   0.01603   0.00501  -0.0413   0.0314   1.0000 133.8854 301.0000
   9.608   1.3048   0.01619   0.00510  -0.0409   0.0307   1.0000 134.0638 301.0000
   9.694   1.3122   0.01633   0.00517  -0.0406   0.0301   1.0000 134.2276 301.0000
   9.779   1.3193   0.01648   0.00526  -0.0403   0.0295   1.0000 134.4005 301.0000
   9.864   1.3263   0.01664   0.00534  -0.0400   0.0289   1.0000 134.5697 301.0000
   9.950   1.3330   0.01682   0.00544  -0.0396   0.0284   1.0000 134.7322 301.0000
  10.035   1.3395   0.01701   0.00555  -0.0391   0.0278   1.0000 134.8960 301.0000
  10.121   1.3460   0.01720   0.00565  -0.0387   0.0273   1.0000 135.0452 301.0000
  10.206   1.3531   0.01733   0.00572  -0.0384   0.0268   1.0000 135.1744 301.0000
  10.291   1.3600   0.01748   0.00580  -0.0380   0.0264   1.0000 135.3164 301.0000
  10.377   1.3667   0.01764   0.00589  -0.0376   0.0259   1.0000 135.4618 301.0000
  10.462   1.3729   0.01781   0.00597  -0.0372   0.0254   1.0000 135.6005 301.0000
  10.548   1.3787   0.01798   0.00607  -0.0366   0.0250   1.0000 135.7328 301.0000
  10.633   1.3842   0.01818   0.00617  -0.0360   0.0245   1.0000 135.8642 301.0000
  10.719   1.3891   0.01841   0.00629  -0.0354   0.0241   1.0000 136.0025 301.0000
  10.804   1.3953   0.01855   0.00637  -0.0349   0.0238   1.0000 136.1030 301.0000
  10.889   1.4013   0.01871   0.00645  -0.0344   0.0234   1.0000 136.2167 301.0000
  10.975   1.4072   0.01887   0.00654  -0.0339   0.0230   1.0000 136.3365 301.0000
  11.060   1.4129   0.01905   0.00664  -0.0333   0.0227   1.0000 136.4583 301.0000
  11.146   1.4185   0.01924   0.00674  -0.0328   0.0223   1.0000 136.5775 301.0000
  11.231   1.4238   0.01944   0.00684  -0.0322   0.0219   1.0000 136.6942 301.0000
  11.317   1.4288   0.01967   0.00697  -0.0317   0.0216   1.0000 136.8112 301.0000
  11.402   1.4334   0.01992   0.00711  -0.0310   0.0212   1.0000 136.9354 301.0000
  11.487   1.4383   0.02015   0.00724  -0.0304   0.0209   1.0000 137.0377 301.0000
  11.573   1.4441   0.02033   0.00734  -0.0299   0.0206   1.0000 137.1237 301.0000
  11.658   1.4496   0.02052   0.00745  -0.0294   0.0204   1.0000 137.2178 301.0000
  11.744   1.4550   0.02073   0.00756  -0.0289   0.0201   1.0000 137.3150 301.0000
  11.829   1.4603   0.02094   0.00768  -0.0284   0.0198   1.0000 137.4127 301.0000
  11.915   1.4653   0.02116   0.00780  -0.0279   0.0195   1.0000 137.5096 301.0000
  12.000   1.4702   0.02140   0.00794  -0.0273   0.0192   1.0000 137.6035 301.0000
