  
       XFOIL         Version 6.99
  
 Calculated polar for: Repaneled_Airfoil                               
  
 1 1 Reynolds number fixed          Mach number fixed         
  
 xtrf =   1.000 (top)        1.000 (bottom)  
 Mach =   0.000     Re =     1.000 e 6     Ncrit =   9.000  9.000
  
   alpha    CL        CD       CDp       CM     Top_Xtr  Bot_Xtr  Top_Itr  Bot_Itr
  ------ -------- --------- --------- -------- -------- -------- -------- --------
  -5.000   0.2476   0.00779   0.00147  -0.1701   0.7943   0.1772  45.7845 192.4030
  -4.915   0.2576   0.00775   0.00143  -0.1702   0.7928   0.1788  45.9607 192.6068
  -4.829   0.2677   0.00773   0.00142  -0.1703   0.7904   0.1803  46.2336 192.7945
  -4.744   0.2778   0.00771   0.00139  -0.1704   0.7878   0.1816  46.5422 192.9567
  -4.658   0.2877   0.00766   0.00135  -0.1705   0.7853   0.1829  46.8295 193.1207
  -4.573   0.2977   0.00762   0.00134  -0.1706   0.7825   0.1843  47.1523 193.2895
  -4.487   0.3078   0.00760   0.00133  -0.1707   0.7784   0.1857  47.6194 193.4642
  -4.402   0.3178   0.00757   0.00130  -0.1708   0.7743   0.1871  48.0916 193.6365
  -4.317   0.3278   0.00754   0.00126  -0.1709   0.7689   0.1884  48.7028 193.7993
  -4.231   0.3377   0.00752   0.00120  -0.1709   0.7622   0.1896  49.4506 193.9443
  -4.146   0.3475   0.00748   0.00114  -0.1710   0.7511   0.1908  50.6817 194.0896
  -4.060   0.3566   0.00746   0.00105  -0.1708   0.7369   0.1920  52.2318 194.2304
  -3.889   0.3742   0.00760   0.00100  -0.1705   0.7088   0.1942  55.2219 194.5019
  -3.804   0.3831   0.00768   0.00101  -0.1704   0.6997   0.1953  56.1743 194.6402
  -3.719   0.3922   0.00776   0.00102  -0.1704   0.6925   0.1964  56.9189 194.7738
  -3.633   0.4015   0.00782   0.00102  -0.1703   0.6871   0.1975  57.4788 194.8977
  -3.462   0.4200   0.00790   0.00105  -0.1703   0.6784   0.1995  58.3682 195.1374
  -3.377   0.4294   0.00794   0.00107  -0.1703   0.6746   0.2005  58.7562 195.2568
  -3.292   0.4387   0.00798   0.00109  -0.1703   0.6713   0.2014  59.0893 195.3719
  -3.206   0.4483   0.00801   0.00111  -0.1703   0.6681   0.2024  59.4131 195.4867
  -3.121   0.4578   0.00805   0.00112  -0.1703   0.6651   0.2033  59.7205 195.6003
  -2.950   0.4768   0.00811   0.00113  -0.1703   0.6598   0.2052  60.2557 195.8197
  -2.864   0.4863   0.00814   0.00113  -0.1703   0.6572   0.2060  60.5181 195.9220
  -2.779   0.4958   0.00817   0.00113  -0.1703   0.6547   0.2068  60.7656 196.0170
  -2.693   0.5051   0.00818   0.00115  -0.1703   0.6525   0.2078  60.9884 196.1310
  -2.608   0.5147   0.00819   0.00116  -0.1704   0.6502   0.2087  61.2139 196.2353
  -2.523   0.5243   0.00821   0.00118  -0.1704   0.6479   0.2095  61.4450 196.3370
  -2.437   0.5338   0.00823   0.00119  -0.1704   0.6456   0.2104  61.6707 196.4380
  -2.352   0.5432   0.00826   0.00120  -0.1704   0.6435   0.2112  61.8826 196.5351
  -2.266   0.5527   0.00829   0.00120  -0.1704   0.6415   0.2120  62.0837 196.6290
  -2.181   0.5623   0.00830   0.00120  -0.1704   0.6393   0.2128  62.2988 196.7225
  -2.095   0.5719   0.00832   0.00120  -0.1705   0.6371   0.2136  62.5166 196.8147
  -2.010   0.5813   0.00835   0.00120  -0.1705   0.6350   0.2144  62.7271 196.9055
  -1.925   0.5907   0.00838   0.00119  -0.1704   0.6330   0.2151  62.9234 196.9871
  -1.839   0.6001   0.00838   0.00120  -0.1704   0.6311   0.2159  63.1135 197.0888
  -1.754   0.6097   0.00838   0.00121  -0.1705   0.6291   0.2168  63.3144 197.1835
  -1.668   0.6192   0.00840   0.00122  -0.1705   0.6270   0.2175  63.5145 197.2742
  -1.583   0.6286   0.00842   0.00123  -0.1705   0.6251   0.2183  63.7058 197.3653
  -1.498   0.6379   0.00845   0.00124  -0.1705   0.6233   0.2191  63.8829 197.4575
  -1.412   0.6472   0.00848   0.00125  -0.1704   0.6216   0.2199  64.0484 197.5503
  -1.327   0.6569   0.00849   0.00125  -0.1705   0.6198   0.2207  64.2239 197.6456
  -1.241   0.6664   0.00851   0.00125  -0.1705   0.6180   0.2215  64.3976 197.7393
  -1.156   0.6759   0.00853   0.00125  -0.1705   0.6163   0.2223  64.5650 197.8292
  -1.070   0.6853   0.00855   0.00125  -0.1705   0.6147   0.2230  64.7254 197.9124
  -0.985   0.6946   0.00859   0.00124  -0.1705   0.6132   0.2237  64.8762 197.9883
  -0.899   0.7038   0.00860   0.00125  -0.1704   0.6117   0.2245  65.0183 198.0810
  -0.814   0.7134   0.00859   0.00126  -0.1705   0.6100   0.2253  65.1863 198.1681
  -0.729   0.7229   0.00860   0.00127  -0.1705   0.6080   0.2260  65.3830 198.2486
  -0.643   0.7322   0.00863   0.00127  -0.1704   0.6058   0.2267  65.5943 198.3299
  -0.558   0.7413   0.00866   0.00128  -0.1704   0.6036   0.2274  65.8065 198.4160
  -0.472   0.7503   0.00870   0.00129  -0.1703   0.6014   0.2282  66.0211 198.5070
  -0.387   0.7598   0.00871   0.00129  -0.1703   0.5989   0.2291  66.2683 198.6047
  -0.301   0.7691   0.00874   0.00129  -0.1703   0.5963   0.2299  66.5141 198.7032
  -0.216   0.7782   0.00877   0.00129  -0.1702   0.5940   0.2308  66.7442 198.7990
  -0.131   0.7871   0.00882   0.00129  -0.1701   0.5918   0.2316  66.9515 198.8878
  -0.045   0.7965   0.00884   0.00128  -0.1701   0.5898   0.2322  67.1529 198.9666
   0.040   0.8059   0.00885   0.00128  -0.1701   0.5876   0.2330  67.3606 199.0496
   0.126   0.8150   0.00886   0.00129  -0.1700   0.5854   0.2337  67.5768 199.1346
   0.211   0.8240   0.00889   0.00130  -0.1699   0.5832   0.2344  67.7847 199.2130
   0.296   0.8328   0.00893   0.00130  -0.1698   0.5813   0.2351  67.9761 199.2893
   0.382   0.8422   0.00894   0.00131  -0.1698   0.5791   0.2358  68.1791 199.3695
   0.467   0.8514   0.00896   0.00131  -0.1698   0.5769   0.2366  68.3918 199.4548
   0.553   0.8606   0.00899   0.00131  -0.1697   0.5748   0.2374  68.5980 199.5453
   0.638   0.8695   0.00903   0.00132  -0.1696   0.5727   0.2382  68.7974 199.6395
   0.809   0.8875   0.00909   0.00132  -0.1695   0.5684   0.2399  69.2116 199.8282
   0.894   0.8966   0.00912   0.00131  -0.1694   0.5661   0.2406  69.4366 199.9154
   0.980   0.9055   0.00916   0.00131  -0.1693   0.5637   0.2413  69.6686 199.9900
   1.065   0.9141   0.00919   0.00132  -0.1691   0.5613   0.2421  69.8939 200.0791
   1.151   0.9229   0.00922   0.00132  -0.1690   0.5590   0.2428  70.1198 200.1622
   1.236   0.9320   0.00924   0.00133  -0.1690   0.5564   0.2436  70.3669 200.2418
   1.322   0.9408   0.00927   0.00133  -0.1688   0.5538   0.2443  70.6210 200.3211
   1.407   0.9492   0.00932   0.00134  -0.1687   0.5511   0.2450  70.8760 200.4017
   1.492   0.9579   0.00936   0.00134  -0.1685   0.5485   0.2458  71.1200 200.4862
   1.578   0.9669   0.00939   0.00134  -0.1684   0.5457   0.2466  71.3891 200.5756
   1.663   0.9755   0.00943   0.00134  -0.1683   0.5428   0.2474  71.6706 200.6653
   1.749   0.9836   0.00949   0.00135  -0.1680   0.5400   0.2482  71.9423 200.7550
   1.834   0.9924   0.00953   0.00135  -0.1679   0.5370   0.2490  72.2266 200.8472
   1.920   1.0009   0.00958   0.00134  -0.1677   0.5337   0.2498  72.5437 200.9365
   2.005   1.0089   0.00964   0.00135  -0.1675   0.5303   0.2505  72.8611 201.0193
   2.091   1.0172   0.00968   0.00136  -0.1673   0.5268   0.2515  73.1981 201.1200
   2.176   1.0255   0.00972   0.00136  -0.1671   0.5226   0.2523  73.6042 201.2106
   2.347   1.0414   0.00985   0.00138  -0.1665   0.5143   0.2539  74.3965 201.3852
   2.432   1.0490   0.00992   0.00139  -0.1662   0.5098   0.2547  74.8224 201.4750
   2.518   1.0567   0.00999   0.00140  -0.1659   0.5054   0.2555  75.2364 201.5659
   2.603   1.0643   0.01007   0.00140  -0.1655   0.5005   0.2563  75.7057 201.6564
   2.688   1.0715   0.01015   0.00141  -0.1651   0.4958   0.2571  76.1553 201.7424
   2.774   1.0789   0.01023   0.00142  -0.1648   0.4901   0.2579  76.6968 201.8283
   2.859   1.0858   0.01033   0.00143  -0.1643   0.4844   0.2586  77.2431 201.9066
   2.945   1.0922   0.01045   0.00144  -0.1637   0.4774   0.2592  77.9116 201.9766
   3.030   1.0978   0.01056   0.00145  -0.1630   0.4696   0.2599  78.6604 202.0523
   3.116   1.1022   0.01069   0.00147  -0.1621   0.4608   0.2606  79.4941 202.1258
   3.201   1.1057   0.01085   0.00150  -0.1610   0.4505   0.2612  80.4838 202.1925
   3.286   1.1088   0.01106   0.00155  -0.1599   0.4388   0.2618  81.6023 202.2560
   3.372   1.1120   0.01132   0.00162  -0.1588   0.4241   0.2624  83.0251 202.3203
   3.457   1.1144   0.01167   0.00173  -0.1577   0.4052   0.2630  84.8558 202.3830
   3.543   1.1152   0.01211   0.00189  -0.1563   0.3796   0.2635  87.3545 202.4413
   3.628   1.1104   0.01288   0.00218  -0.1540   0.3341   0.2638  91.8934 202.4774
   3.714   1.0993   0.01402   0.00268  -0.1509   0.2645   0.2639  99.1723 202.4870
   3.799   1.0893   0.01512   0.00320  -0.1480   0.1907   0.2640 107.6286 202.5005
   3.884   1.0850   0.01592   0.00356  -0.1459   0.1428   0.2644 113.7970 202.5379
   3.970   1.0888   0.01624   0.00370  -0.1451   0.1284   0.2651 115.8029 202.6108
   4.141   1.0998   0.01668   0.00387  -0.1439   0.1143   0.2666 117.8757 202.7751
   4.226   1.1060   0.01686   0.00394  -0.1435   0.1094   0.2673 118.6241 202.8577
   4.312   1.1122   0.01704   0.00401  -0.1430   0.1052   0.2681 119.2751 202.9373
   4.397   1.1184   0.01722   0.00408  -0.1425   0.1013   0.2688 119.8831 203.0142
   4.482   1.1249   0.01737   0.00415  -0.1421   0.0979   0.2696 120.4236 203.1098
   4.568   1.1311   0.01754   0.00422  -0.1417   0.0947   0.2705 120.9410 203.1970
   4.653   1.1377   0.01769   0.00429  -0.1413   0.0917   0.2713 121.4341 203.2858
   4.739   1.1439   0.01787   0.00436  -0.1408   0.0888   0.2721 121.9268 203.3726
   4.824   1.1504   0.01803   0.00442  -0.1404   0.0860   0.2729 122.3941 203.4652
   4.910   1.1565   0.01821   0.00450  -0.1399   0.0833   0.2738 122.8631 203.5568
   4.995   1.1629   0.01838   0.00456  -0.1395   0.0808   0.2747 123.3014 203.6521
   5.080   1.1692   0.01855   0.00463  -0.1391   0.0782   0.2755 123.7575 203.7437
   5.166   1.1753   0.01873   0.00470  -0.1386   0.0759   0.2764 124.1667 203.8329
   5.251   1.1816   0.01891   0.00477  -0.1382   0.0735   0.2771 124.5961 203.9174
   5.422   1.1938   0.01926   0.00493  -0.1372   0.0694   0.2787 125.3678 204.0893
   5.508   1.1999   0.01945   0.00501  -0.1368   0.0674   0.2796 125.7428 204.1818
   5.593   1.2057   0.01964   0.00510  -0.1363   0.0656   0.2805 126.0821 204.2739
   5.678   1.2120   0.01982   0.00518  -0.1359   0.0638   0.2814 126.4333 204.3739
   5.764   1.2178   0.02002   0.00527  -0.1354   0.0621   0.2824 126.7779 204.4760
   5.849   1.2235   0.02022   0.00536  -0.1349   0.0605   0.2834 127.0895 204.5813
   5.935   1.2297   0.02041   0.00545  -0.1345   0.0589   0.2844 127.4112 204.6931
   6.020   1.2354   0.02061   0.00554  -0.1340   0.0574   0.2854 127.7251 204.7999
   6.106   1.2407   0.02085   0.00564  -0.1334   0.0560   0.2863 128.0122 204.8988
   6.191   1.2467   0.02104   0.00573  -0.1329   0.0547   0.2872 128.2849 204.9916
   6.276   1.2524   0.02124   0.00583  -0.1325   0.0534   0.2882 128.5650 205.0996
   6.362   1.2577   0.02147   0.00595  -0.1319   0.0521   0.2892 128.8280 205.1992
   6.447   1.2630   0.02171   0.00606  -0.1314   0.0510   0.2901 129.0730 205.2946
   6.533   1.2688   0.02191   0.00616  -0.1309   0.0498   0.2910 129.3247 205.3950
   6.618   1.2743   0.02213   0.00628  -0.1304   0.0487   0.2920 129.5805 205.4952
   6.704   1.2794   0.02238   0.00640  -0.1298   0.0476   0.2930 129.8188 205.5963
   6.789   1.2843   0.02265   0.00653  -0.1292   0.0466   0.2939 130.0408 205.6987
   6.874   1.2900   0.02286   0.00664  -0.1288   0.0457   0.2949 130.2616 205.8062
   6.960   1.2953   0.02310   0.00676  -0.1282   0.0447   0.2959 130.4913 205.9079
   7.045   1.3002   0.02337   0.00689  -0.1277   0.0437   0.2968 130.7108 205.9997
   7.131   1.3046   0.02365   0.00704  -0.1271   0.0428   0.2978 130.9236 206.1073
   7.216   1.3097   0.02390   0.00718  -0.1265   0.0420   0.2988 131.1220 206.2161
   7.301   1.3150   0.02414   0.00730  -0.1260   0.0411   0.2999 131.3359 206.3264
   7.387   1.3198   0.02441   0.00745  -0.1254   0.0402   0.3010 131.5469 206.4397
   7.472   1.3243   0.02471   0.00761  -0.1248   0.0394   0.3021 131.7449 206.5546
   7.558   1.3281   0.02505   0.00779  -0.1241   0.0386   0.3032 131.9392 206.6680
   7.643   1.3330   0.02532   0.00794  -0.1236   0.0379   0.3044 132.1146 206.7916
   7.729   1.3381   0.02558   0.00808  -0.1231   0.0372   0.3055 132.2985 206.9156
   7.814   1.3428   0.02587   0.00823  -0.1225   0.0365   0.3067 132.4826 207.0380
   7.899   1.3472   0.02617   0.00841  -0.1219   0.0358   0.3080 132.6587 207.1698
   7.985   1.3512   0.02650   0.00860  -0.1213   0.0351   0.3093 132.8255 207.3014
   8.070   1.3545   0.02689   0.00882  -0.1206   0.0345   0.3105 132.9955 207.4333
   8.156   1.3595   0.02716   0.00897  -0.1200   0.0339   0.3120 133.1403 207.5880
   8.241   1.3641   0.02746   0.00914  -0.1195   0.0333   0.3135 133.3000 207.7410
   8.327   1.3684   0.02778   0.00932  -0.1189   0.0327   0.3150 133.4586 207.8919
   8.412   1.3725   0.02812   0.00952  -0.1183   0.0322   0.3164 133.6098 208.0393
   8.498   1.3764   0.02848   0.00973  -0.1177   0.0316   0.3179 133.7546 208.1907
   8.583   1.3796   0.02889   0.00998  -0.1170   0.0311   0.3194 133.8975 208.3446
   8.668   1.3827   0.02932   0.01024  -0.1163   0.0306   0.3210 134.0336 208.5089
   8.754   1.3872   0.02965   0.01044  -0.1158   0.0302   0.3228 134.1552 208.6987
   8.839   1.3915   0.02999   0.01064  -0.1152   0.0297   0.3247 134.2870 208.8949
   8.925   1.3956   0.03036   0.01087  -0.1147   0.0293   0.3267 134.4189 209.0952
   9.010   1.3994   0.03075   0.01111  -0.1141   0.0288   0.3289 134.5480 209.3203
   9.095   1.4029   0.03117   0.01137  -0.1135   0.0284   0.3314 134.6709 209.5727
   9.181   1.4060   0.03161   0.01165  -0.1128   0.0280   0.3340 134.7905 209.8415
   9.266   1.4085   0.03212   0.01197  -0.1121   0.0275   0.3366 134.9115 210.1087
   9.352   1.4109   0.03265   0.01232  -0.1115   0.0271   0.3396 135.0253 210.4098
   9.437   1.4152   0.03302   0.01255  -0.1110   0.0268   0.3435 135.1204 210.8003
   9.523   1.4192   0.03341   0.01280  -0.1104   0.0265   0.3479 135.2262 211.2426
   9.608   1.4229   0.03383   0.01308  -0.1099   0.0261   0.3534 135.3348 211.7942
   9.694   1.4264   0.03427   0.01337  -0.1094   0.0258   0.3602 135.4417 212.4793
   9.779   1.4300   0.03472   0.01366  -0.1088   0.0254   0.3697 135.5452 213.4244
   9.950   1.4370   0.03558   0.01437  -0.1079   0.0248   0.4883 135.7440 224.9158
  10.035   1.4411   0.03549   0.01487  -0.1075   0.0244   0.8924 135.8420 269.0975
  10.121   1.4442   0.03604   0.01533  -0.1072   0.0241   1.0000 135.9470 301.0000
  10.206   1.4463   0.03664   0.01573  -0.1065   0.0238   1.0000 136.0289 301.0000
  10.291   1.4498   0.03712   0.01603  -0.1060   0.0236   1.0000 136.1006 301.0000
  10.377   1.4532   0.03762   0.01635  -0.1055   0.0234   1.0000 136.1788 301.0000
  10.462   1.4563   0.03815   0.01669  -0.1050   0.0231   1.0000 136.2593 301.0000
  10.548   1.4594   0.03868   0.01704  -0.1045   0.0229   1.0000 136.3401 301.0000
  10.633   1.4625   0.03922   0.01739  -0.1040   0.0226   1.0000 136.4202 301.0000
  10.719   1.4654   0.03978   0.01775  -0.1035   0.0224   1.0000 136.4976 301.0000
  10.804   1.4682   0.04036   0.01813  -0.1030   0.0221   1.0000 136.5734 301.0000
  10.889   1.4708   0.04095   0.01851  -0.1025   0.0219   1.0000 136.6472 301.0000
  10.975   1.4732   0.04157   0.01893  -0.1020   0.0217   1.0000 136.7191 301.0000
  11.060   1.4753   0.04222   0.01936  -0.1014   0.0215   1.0000 136.7910 301.0000
  11.146   1.4769   0.04292   0.01983  -0.1009   0.0212   1.0000 136.8640 301.0000
  11.231   1.4778   0.04370   0.02036  -0.1003   0.0210   1.0000 136.9404 301.0000
  11.317   1.4786   0.04449   0.02091  -0.0997   0.0208   1.0000 137.0104 301.0000
  11.402   1.4817   0.04505   0.02128  -0.0993   0.0207   1.0000 137.0591 301.0000
  11.487   1.4846   0.04565   0.02168  -0.0988   0.0205   1.0000 137.1139 301.0000
  11.573   1.4873   0.04626   0.02209  -0.0984   0.0203   1.0000 137.1734 301.0000
  11.658   1.4900   0.04689   0.02250  -0.0980   0.0201   1.0000 137.2361 301.0000
  11.744   1.4926   0.04752   0.02293  -0.0975   0.0200   1.0000 137.3000 301.0000
  11.829   1.4951   0.04816   0.02336  -0.0971   0.0198   1.0000 137.3647 301.0000
  11.915   1.4976   0.04881   0.02379  -0.0967   0.0196   1.0000 137.4286 301.0000
  12.000   1.5000   0.04947   0.02423  -0.0963   0.0194   1.0000 137.4917 301.0000
