  
       XFOIL         Version 6.99
  
 Calculated polar for: Repaneled_Airfoil                               
  
 1 1 Reynolds number fixed          Mach number fixed         
  
 xtrf =   1.000 (top)        1.000 (bottom)  
 Mach =   0.000     Re =     1.000 e 6     Ncrit =   9.000  9.000
  
   alpha    CL        CD       CDp       CM     Top_Xtr  Bot_Xtr  Top_Itr  Bot_Itr
  ------ -------- --------- --------- -------- -------- -------- -------- --------
  -5.000  -0.5590   0.00924   0.00214  -0.0040   0.9919   0.1004   9.5916 181.7913
  -4.915  -0.5450   0.00912   0.00209  -0.0050   0.9913   0.1068   9.9389 182.7987
  -4.829  -0.5318   0.00901   0.00203  -0.0058   0.9902   0.1135  10.4725 183.8206
  -4.744  -0.5177   0.00890   0.00199  -0.0068   0.9894   0.1205  10.8531 184.8627
  -4.658  -0.5043   0.00879   0.00194  -0.0077   0.9883   0.1274  11.3403 185.8621
  -4.573  -0.4903   0.00868   0.00189  -0.0086   0.9873   0.1350  11.7578 186.9304
  -4.487  -0.4764   0.00858   0.00185  -0.0096   0.9864   0.1422  12.1619 187.9333
  -4.402  -0.4633   0.00848   0.00180  -0.0103   0.9852   0.1490  12.6426 188.8460
  -4.317  -0.4492   0.00838   0.00176  -0.0113   0.9845   0.1559  12.9336 189.7730
  -4.231  -0.4371   0.00829   0.00172  -0.0119   0.9831   0.1619  13.4416 190.5546
  -4.146  -0.4238   0.00820   0.00168  -0.0127   0.9822   0.1681  13.7755 191.3508
  -4.060  -0.4102   0.00812   0.00164  -0.0135   0.9814   0.1744  14.0571 192.1504
  -3.975  -0.3987   0.00804   0.00161  -0.0140   0.9799   0.1803  14.5663 192.8784
  -3.889  -0.3855   0.00795   0.00156  -0.0147   0.9791   0.1858  14.8421 193.5671
  -3.804  -0.3733   0.00787   0.00152  -0.0153   0.9779   0.1908  15.2377 194.1780
  -3.719  -0.3610   0.00778   0.00148  -0.0159   0.9766   0.1960  15.6610 194.8033
  -3.548  -0.3365   0.00761   0.00139  -0.0170   0.9737   0.2069  16.5579 196.1015
  -3.462  -0.3240   0.00751   0.00134  -0.0176   0.9723   0.2134  16.9710 196.8581
  -3.377  -0.3139   0.00741   0.00129  -0.0177   0.9696   0.2198  17.7252 197.6030
  -3.292  -0.3035   0.00731   0.00124  -0.0179   0.9669   0.2278  18.4578 198.5170
  -3.206  -0.2929   0.00719   0.00119  -0.0181   0.9641   0.2377  19.2120 199.6382
  -3.121  -0.2827   0.00707   0.00113  -0.0182   0.9606   0.2497  20.0717 200.9794
  -3.035  -0.2730   0.00693   0.00107  -0.0182   0.9562   0.2651  21.1283 202.6497
  -2.950  -0.2632   0.00678   0.00102  -0.0183   0.9510   0.2842  22.3233 204.6978
  -2.864  -0.2528   0.00661   0.00095  -0.0185   0.9446   0.3066  23.6883 207.0452
  -2.779  -0.2420   0.00644   0.00089  -0.0188   0.9360   0.3315  25.4226 209.5991
  -2.693  -0.2299   0.00627   0.00081  -0.0194   0.9221   0.3575  28.0216 212.2070
  -2.608  -0.2167   0.00613   0.00068  -0.0200   0.8721   0.3834  35.9220 214.7704
  -2.523  -0.2106   0.00627   0.00060  -0.0191   0.8044   0.4008  44.7537 216.4730
  -2.437  -0.2029   0.00629   0.00059  -0.0187   0.7853   0.4176  47.0152 218.0983
  -2.352  -0.1946   0.00626   0.00058  -0.0185   0.7739   0.4340  48.3179 219.6820
  -2.266  -0.1859   0.00623   0.00058  -0.0183   0.7653   0.4498  49.2989 221.2009
  -2.181  -0.1771   0.00619   0.00057  -0.0181   0.7581   0.4656  50.1093 222.7226
  -2.095  -0.1681   0.00615   0.00056  -0.0180   0.7516   0.4809  50.8228 224.1817
  -2.010  -0.1591   0.00610   0.00056  -0.0179   0.7457   0.4959  51.4811 225.6190
  -1.839  -0.1409   0.00602   0.00055  -0.0177   0.7343   0.5244  52.7168 228.3335
  -1.754  -0.1317   0.00598   0.00054  -0.0176   0.7290   0.5378  53.2885 229.6173
  -1.668  -0.1225   0.00594   0.00054  -0.0175   0.7236   0.5511  53.8663 230.8939
  -1.583  -0.1132   0.00589   0.00053  -0.0174   0.7181   0.5644  54.4497 232.1751
  -1.498  -0.1041   0.00585   0.00052  -0.0173   0.7126   0.5778  55.0307 233.4657
  -1.412  -0.0948   0.00581   0.00052  -0.0173   0.7067   0.5906  55.6514 234.7013
  -1.327  -0.0855   0.00578   0.00051  -0.0172   0.7010   0.6026  56.2528 235.8763
  -1.241  -0.0762   0.00575   0.00050  -0.0171   0.6949   0.6150  56.8858 237.0827
  -1.156  -0.0670   0.00570   0.00050  -0.0170   0.6886   0.6276  57.5362 238.3223
  -1.070  -0.0578   0.00567   0.00049  -0.0169   0.6823   0.6399  58.1827 239.5501
  -0.985  -0.0485   0.00564   0.00049  -0.0168   0.6756   0.6519  58.8664 240.7447
  -0.899  -0.0392   0.00561   0.00048  -0.0167   0.6689   0.6636  59.5565 241.9163
  -0.814  -0.0300   0.00558   0.00048  -0.0166   0.6622   0.6752  60.2326 243.1013
  -0.729  -0.0209   0.00555   0.00048  -0.0165   0.6554   0.6873  60.9201 244.3370
  -0.643  -0.0117   0.00552   0.00048  -0.0164   0.6484   0.7004  61.6214 245.6985
  -0.558  -0.0025   0.00550   0.00049  -0.0163   0.6415   0.7140  62.3062 247.1183
  -0.472   0.0066   0.00549   0.00051  -0.0161   0.6345   0.7275  63.0055 248.5621
  -0.387   0.0158   0.00549   0.00052  -0.0160   0.6271   0.7401  63.7335 249.9168
  -0.301   0.0251   0.00550   0.00054  -0.0159   0.6199   0.7503  64.4428 251.0372
  -0.216   0.0345   0.00552   0.00056  -0.0158   0.6127   0.7596  65.1520 252.0719
  -0.131   0.0439   0.00555   0.00058  -0.0157   0.6052   0.7675  65.8824 252.9588
  -0.045   0.0534   0.00558   0.00059  -0.0156   0.5979   0.7742  66.5968 253.7180
   0.040   0.0628   0.00561   0.00061  -0.0156   0.5909   0.7802  67.2815 254.4033
   0.211   0.0819   0.00568   0.00064  -0.0154   0.5765   0.7905  68.6691 255.6054
   0.296   0.0914   0.00571   0.00065  -0.0154   0.5696   0.7950  69.3425 256.1330
   0.382   0.1009   0.00575   0.00066  -0.0153   0.5626   0.7989  70.0120 256.6002
   0.467   0.1105   0.00579   0.00067  -0.0153   0.5554   0.8029  70.7038 257.0744
   0.553   0.1200   0.00582   0.00069  -0.0152   0.5484   0.8062  71.3729 257.4756
   0.638   0.1296   0.00587   0.00070  -0.0152   0.5412   0.8099  72.0668 257.9277
   0.724   0.1391   0.00591   0.00072  -0.0152   0.5335   0.8127  72.8026 258.2685
   0.809   0.1486   0.00595   0.00073  -0.0151   0.5257   0.8159  73.5537 258.6523
   0.894   0.1581   0.00600   0.00074  -0.0151   0.5175   0.8191  74.3339 259.0477
   0.980   0.1675   0.00605   0.00076  -0.0150   0.5092   0.8216  75.1327 259.3583
   1.151   0.1864   0.00615   0.00078  -0.0149   0.4915   0.8271  76.8164 260.0546
   1.236   0.1958   0.00620   0.00080  -0.0148   0.4825   0.8292  77.6776 260.3145
   1.322   0.2052   0.00625   0.00081  -0.0148   0.4733   0.8314  78.5552 260.5979
   1.407   0.2147   0.00630   0.00082  -0.0147   0.4641   0.8337  79.4363 260.8975
   1.492   0.2241   0.00636   0.00083  -0.0147   0.4550   0.8356  80.3125 261.1319
   1.578   0.2335   0.00641   0.00084  -0.0146   0.4464   0.8374  81.1406 261.3662
   1.663   0.2429   0.00646   0.00086  -0.0146   0.4383   0.8395  81.9132 261.6448
   1.749   0.2525   0.00651   0.00086  -0.0146   0.4310   0.8418  82.6189 261.9459
   1.834   0.2619   0.00655   0.00088  -0.0145   0.4242   0.8436  83.2721 262.1765
   1.920   0.2713   0.00660   0.00090  -0.0144   0.4173   0.8455  83.9437 262.4284
   2.005   0.2808   0.00664   0.00091  -0.0144   0.4103   0.8476  84.6192 262.7112
   2.091   0.2904   0.00670   0.00092  -0.0144   0.4036   0.8499  85.2694 263.0078
   2.176   0.2997   0.00674   0.00094  -0.0143   0.3970   0.8515  85.9162 263.2230
   2.261   0.3091   0.00678   0.00095  -0.0142   0.3909   0.8533  86.5139 263.4734
   2.347   0.3186   0.00683   0.00097  -0.0142   0.3851   0.8554  87.0793 263.7600
   2.432   0.3281   0.00687   0.00098  -0.0142   0.3792   0.8575  87.6585 264.0431
   2.518   0.3374   0.00692   0.00100  -0.0141   0.3737   0.8591  88.1966 264.2631
   2.603   0.3469   0.00696   0.00101  -0.0141   0.3681   0.8608  88.7549 264.4987
   2.688   0.3564   0.00700   0.00103  -0.0140   0.3630   0.8626  89.2610 264.7445
   2.774   0.3660   0.00705   0.00104  -0.0140   0.3576   0.8644  89.7952 264.9872
   2.859   0.3754   0.00709   0.00105  -0.0140   0.3527   0.8656  90.2894 265.1559
   2.945   0.3848   0.00713   0.00107  -0.0139   0.3476   0.8668  90.7991 265.3276
   3.030   0.3943   0.00717   0.00108  -0.0139   0.3429   0.8681  91.2668 265.5076
   3.116   0.4039   0.00721   0.00109  -0.0139   0.3382   0.8694  91.7446 265.6982
   3.201   0.4135   0.00725   0.00110  -0.0139   0.3339   0.8708  92.1791 265.8989
   3.286   0.4230   0.00729   0.00111  -0.0139   0.3292   0.8720  92.6567 266.0690
   3.372   0.4324   0.00734   0.00113  -0.0139   0.3246   0.8731  93.1230 266.2172
   3.457   0.4419   0.00738   0.00114  -0.0139   0.3196   0.8742  93.6311 266.3791
   3.543   0.4513   0.00742   0.00115  -0.0138   0.3150   0.8754  94.1024 266.5555
   3.628   0.4609   0.00746   0.00116  -0.0138   0.3104   0.8767  94.5820 266.7385
   3.714   0.4704   0.00752   0.00118  -0.0138   0.3061   0.8780  95.0194 266.9278
   3.799   0.4800   0.00755   0.00119  -0.0138   0.3020   0.8791  95.4492 267.0841
   3.884   0.4893   0.00759   0.00121  -0.0138   0.2977   0.8800  95.9003 267.2305
   3.970   0.4988   0.00763   0.00122  -0.0138   0.2931   0.8811  96.3764 267.3939
   4.055   0.5081   0.00769   0.00123  -0.0137   0.2880   0.8823  96.9150 267.5707
   4.141   0.5177   0.00773   0.00125  -0.0137   0.2827   0.8836  97.4740 267.7567
   4.226   0.5271   0.00779   0.00126  -0.0137   0.2772   0.8849  98.0563 267.9457
   4.312   0.5366   0.00784   0.00127  -0.0137   0.2718   0.8859  98.6352 268.0956
   4.397   0.5458   0.00789   0.00129  -0.0137   0.2668   0.8868  99.1791 268.2409
   4.482   0.5552   0.00794   0.00131  -0.0136   0.2612   0.8879  99.7828 268.4000
   4.568   0.5646   0.00799   0.00132  -0.0136   0.2557   0.8890 100.3874 268.5748
   4.653   0.5739   0.00805   0.00134  -0.0136   0.2492   0.8902 101.0943 268.7582
   4.739   0.5833   0.00812   0.00136  -0.0136   0.2418   0.8915 101.9140 268.9466
   4.824   0.5924   0.00819   0.00138  -0.0135   0.2334   0.8924 102.8580 269.0961
   4.910   0.6014   0.00828   0.00140  -0.0135   0.2230   0.8934 104.0489 269.2436
   4.995   0.6103   0.00838   0.00143  -0.0134   0.2107   0.8945 105.4741 269.4089
   5.080   0.6190   0.00852   0.00147  -0.0133   0.1956   0.8956 107.2685 269.5898
   5.166   0.6275   0.00867   0.00152  -0.0131   0.1808   0.8969 109.0698 269.7830
   5.251   0.6362   0.00883   0.00158  -0.0131   0.1671   0.8981 110.8032 269.9792
   5.337   0.6448   0.00896   0.00164  -0.0129   0.1564   0.8991 112.1796 270.1306
   5.422   0.6534   0.00908   0.00170  -0.0128   0.1472   0.9001 113.4084 270.2906
   5.508   0.6622   0.00919   0.00175  -0.0127   0.1398   0.9012 114.4203 270.4691
   5.593   0.6711   0.00930   0.00180  -0.0126   0.1332   0.9024 115.3346 270.6582
   5.678   0.6801   0.00941   0.00185  -0.0125   0.1273   0.9036 116.1737 270.8550
   5.849   0.6979   0.00960   0.00194  -0.0124   0.1169   0.9057 117.6923 271.1968
   5.935   0.7068   0.00969   0.00199  -0.0123   0.1120   0.9068 118.4225 271.3718
   6.020   0.7157   0.00979   0.00204  -0.0122   0.1072   0.9079 119.1545 271.5626
   6.106   0.7246   0.00989   0.00208  -0.0121   0.1027   0.9092 119.8640 271.7711
   6.276   0.7425   0.01007   0.00217  -0.0120   0.0944   0.9115 121.1846 272.1662
   6.362   0.7513   0.01016   0.00222  -0.0119   0.0905   0.9127 121.8387 272.3660
   6.447   0.7601   0.01025   0.00226  -0.0118   0.0870   0.9141 122.4205 272.6007
   6.618   0.7778   0.01043   0.00236  -0.0116   0.0804   0.9171 123.5625 273.1197
   6.704   0.7863   0.01052   0.00241  -0.0114   0.0774   0.9186 124.0986 273.3762
   6.789   0.7951   0.01061   0.00245  -0.0113   0.0744   0.9203 124.6300 273.6698
   6.874   0.8039   0.01071   0.00251  -0.0112   0.0717   0.9221 125.1180 273.9856
   6.960   0.8125   0.01079   0.00255  -0.0111   0.0693   0.9234 125.5853 274.2296
   7.045   0.8211   0.01089   0.00261  -0.0109   0.0669   0.9249 126.0222 274.4887
   7.131   0.8300   0.01097   0.00265  -0.0108   0.0647   0.9262 126.4525 274.7422
   7.216   0.8388   0.01107   0.00271  -0.0108   0.0625   0.9276 126.8907 274.9859
   7.301   0.8476   0.01116   0.00276  -0.0107   0.0605   0.9286 127.2816 275.1689
   7.387   0.8563   0.01125   0.00281  -0.0106   0.0585   0.9296 127.6892 275.3568
   7.472   0.8650   0.01136   0.00287  -0.0104   0.0567   0.9307 128.0621 275.5650
   7.558   0.8739   0.01144   0.00292  -0.0104   0.0550   0.9319 128.4198 275.7880
   7.643   0.8826   0.01155   0.00298  -0.0103   0.0533   0.9331 128.7742 276.0226
   7.729   0.8910   0.01165   0.00304  -0.0101   0.0518   0.9342 129.0928 276.2331
   7.814   0.8998   0.01173   0.00309  -0.0100   0.0503   0.9355 129.4191 276.4805
   7.899   0.9084   0.01183   0.00315  -0.0099   0.0488   0.9369 129.7515 276.7620
   7.985   0.9169   0.01195   0.00321  -0.0098   0.0474   0.9384 130.0599 277.0559
   8.070   0.9254   0.01203   0.00326  -0.0096   0.0461   0.9397 130.3579 277.3213
   8.156   0.9338   0.01213   0.00332  -0.0095   0.0447   0.9413 130.6658 277.6327
   8.241   0.9422   0.01226   0.00339  -0.0093   0.0434   0.9430 130.9658 277.9872
   8.327   0.9505   0.01234   0.00345  -0.0092   0.0423   0.9445 131.2233 278.2978
   8.412   0.9589   0.01243   0.00350  -0.0090   0.0412   0.9463 131.4961 278.6671
   8.498   0.9671   0.01255   0.00357  -0.0088   0.0401   0.9482 131.7564 279.0860
   8.583   0.9748   0.01268   0.00365  -0.0085   0.0391   0.9503 132.0074 279.5386
   8.668   0.9833   0.01275   0.00370  -0.0084   0.0383   0.9526 132.2164 280.0533
   8.754   0.9914   0.01284   0.00376  -0.0081   0.0373   0.9551 132.4495 280.6108
   8.839   0.9993   0.01295   0.00382  -0.0079   0.0364   0.9579 132.6766 281.2637
   8.925   1.0071   0.01307   0.00390  -0.0076   0.0356   0.9610 132.8938 282.0312
   9.010   1.0151   0.01318   0.00396  -0.0074   0.0348   0.9645 133.0927 282.8919
   9.095   1.0236   0.01326   0.00402  -0.0072   0.0341   0.9681 133.2913 283.8646
   9.181   1.0323   0.01337   0.00408  -0.0072   0.0333   0.9722 133.4983 285.0010
   9.266   1.0414   0.01349   0.00416  -0.0072   0.0325   0.9764 133.6981 286.2688
   9.352   1.0509   0.01365   0.00425  -0.0074   0.0318   0.9810 133.9018 287.7934
   9.437   1.0610   0.01379   0.00434  -0.0076   0.0311   0.9858 134.0852 289.6066
   9.523   1.0716   0.01390   0.00442  -0.0080   0.0305   0.9915 134.2593 292.1784
   9.608   1.0822   0.01403   0.00450  -0.0084   0.0298   1.0000 134.4429 301.0000
   9.694   1.0909   0.01417   0.00458  -0.0084   0.0292   1.0000 134.6074 301.0000
   9.779   1.0994   0.01432   0.00468  -0.0084   0.0287   1.0000 134.7658 301.0000
   9.864   1.1076   0.01451   0.00479  -0.0083   0.0281   1.0000 134.9314 301.0000
   9.950   1.1161   0.01466   0.00489  -0.0083   0.0276   1.0000 135.0670 301.0000
  10.035   1.1248   0.01478   0.00497  -0.0083   0.0272   1.0000 135.1944 301.0000
  10.121   1.1335   0.01491   0.00505  -0.0082   0.0267   1.0000 135.3330 301.0000
  10.206   1.1420   0.01504   0.00513  -0.0082   0.0263   1.0000 135.4717 301.0000
  10.291   1.1503   0.01518   0.00522  -0.0081   0.0258   1.0000 135.6075 301.0000
  10.377   1.1585   0.01534   0.00532  -0.0080   0.0254   1.0000 135.7367 301.0000
  10.462   1.1664   0.01552   0.00543  -0.0079   0.0250   1.0000 135.8641 301.0000
  10.548   1.1739   0.01575   0.00557  -0.0077   0.0245   1.0000 136.0015 301.0000
  10.633   1.1823   0.01587   0.00566  -0.0076   0.0242   1.0000 136.0906 301.0000
  10.719   1.1905   0.01601   0.00574  -0.0075   0.0239   1.0000 136.1916 301.0000
  10.804   1.1986   0.01615   0.00584  -0.0074   0.0236   1.0000 136.2970 301.0000
  10.889   1.2067   0.01630   0.00593  -0.0073   0.0232   1.0000 136.4017 301.0000
  10.975   1.2146   0.01646   0.00603  -0.0071   0.0229   1.0000 136.5046 301.0000
  11.060   1.2224   0.01662   0.00614  -0.0070   0.0226   1.0000 136.6047 301.0000
  11.146   1.2301   0.01680   0.00625  -0.0068   0.0223   1.0000 136.7020 301.0000
  11.231   1.2375   0.01700   0.00637  -0.0066   0.0220   1.0000 136.8004 301.0000
  11.317   1.2445   0.01723   0.00652  -0.0063   0.0217   1.0000 136.9058 301.0000
  11.402   1.2511   0.01749   0.00669  -0.0060   0.0213   1.0000 137.0103 301.0000
  11.487   1.2589   0.01763   0.00679  -0.0058   0.0212   1.0000 137.0733 301.0000
  11.573   1.2666   0.01779   0.00690  -0.0057   0.0209   1.0000 137.1461 301.0000
  11.658   1.2741   0.01796   0.00701  -0.0055   0.0207   1.0000 137.2251 301.0000
  11.744   1.2815   0.01813   0.00712  -0.0053   0.0205   1.0000 137.3073 301.0000
  11.829   1.2888   0.01830   0.00724  -0.0050   0.0202   1.0000 137.3903 301.0000
  11.915   1.2961   0.01848   0.00736  -0.0048   0.0200   1.0000 137.4722 301.0000
  12.000   1.3032   0.01867   0.00748  -0.0046   0.0198   1.0000 137.5525 301.0000
