  
       XFOIL         Version 6.99
  
 Calculated polar for: Repaneled_Airfoil                               
  
 1 1 Reynolds number fixed          Mach number fixed         
  
 xtrf =   1.000 (top)        1.000 (bottom)  
 Mach =   0.000     Re =     1.000 e 6     Ncrit =   9.000  9.000
  
   alpha    CL        CD       CDp       CM     Top_Xtr  Bot_Xtr  Top_Itr  Bot_Itr
  ------ -------- --------- --------- -------- -------- -------- -------- --------
  -5.000  -0.4768   0.00821   0.00143  -0.0277   0.9329   0.1414  26.0270 187.8550
  -4.915  -0.4615   0.00812   0.00133  -0.0289   0.9043   0.1484  31.0443 188.8041
  -4.829  -0.4520   0.00815   0.00126  -0.0288   0.8635   0.1539  37.1582 189.5313
  -4.744  -0.4441   0.00819   0.00123  -0.0284   0.8383   0.1586  40.5362 190.1457
  -4.658  -0.4357   0.00820   0.00121  -0.0282   0.8233   0.1633  42.4496 190.7584
  -4.573  -0.4270   0.00820   0.00120  -0.0280   0.8127   0.1675  43.7594 191.2980
  -4.487  -0.4180   0.00819   0.00118  -0.0278   0.8044   0.1719  44.7599 191.8565
  -4.402  -0.4090   0.00817   0.00117  -0.0277   0.7976   0.1760  45.5824 192.3768
  -4.317  -0.3998   0.00816   0.00116  -0.0276   0.7916   0.1803  46.2823 192.9119
  -4.231  -0.3907   0.00814   0.00114  -0.0276   0.7863   0.1842  46.9105 193.3933
  -4.146  -0.3814   0.00812   0.00113  -0.0275   0.7814   0.1882  47.4747 193.8826
  -3.975  -0.3628   0.00807   0.00111  -0.0274   0.7729   0.1952  48.4554 194.7353
  -3.889  -0.3534   0.00806   0.00110  -0.0274   0.7690   0.1983  48.8903 195.1060
  -3.804  -0.3440   0.00802   0.00108  -0.0273   0.7655   0.2014  49.2928 195.4709
  -3.719  -0.3345   0.00801   0.00107  -0.0273   0.7620   0.2044  49.6817 195.8321
  -3.633  -0.3251   0.00799   0.00106  -0.0273   0.7590   0.2072  50.0185 196.1626
  -3.548  -0.3155   0.00796   0.00105  -0.0273   0.7558   0.2102  50.3722 196.5167
  -3.462  -0.3060   0.00794   0.00104  -0.0273   0.7528   0.2134  50.7077 196.8861
  -3.377  -0.2966   0.00792   0.00103  -0.0272   0.7501   0.2165  51.0081 197.2427
  -3.292  -0.2870   0.00788   0.00102  -0.0272   0.7470   0.2198  51.3532 197.6317
  -3.206  -0.2774   0.00787   0.00101  -0.0272   0.7439   0.2230  51.6932 197.9937
  -3.035  -0.2584   0.00781   0.00098  -0.0272   0.7379   0.2289  52.3455 198.6658
  -2.950  -0.2487   0.00780   0.00097  -0.0272   0.7348   0.2316  52.6830 198.9799
  -2.779  -0.2297   0.00774   0.00095  -0.0272   0.7289   0.2379  53.3195 199.6797
  -2.608  -0.2106   0.00769   0.00092  -0.0271   0.7231   0.2441  53.9354 200.3803
  -2.523  -0.2010   0.00767   0.00091  -0.0271   0.7202   0.2474  54.2412 200.7469
  -2.437  -0.1913   0.00764   0.00090  -0.0271   0.7174   0.2506  54.5481 201.0945
  -2.352  -0.1818   0.00762   0.00089  -0.0271   0.7147   0.2540  54.8302 201.4641
  -2.266  -0.1722   0.00760   0.00088  -0.0271   0.7122   0.2575  55.0980 201.8559
  -2.181  -0.1625   0.00756   0.00087  -0.0271   0.7093   0.2609  55.4016 202.2195
  -2.095  -0.1530   0.00754   0.00086  -0.0271   0.7065   0.2646  55.6946 202.6232
  -1.925  -0.1338   0.00748   0.00083  -0.0271   0.7010   0.2719  56.2655 203.4142
  -1.839  -0.1241   0.00746   0.00082  -0.0271   0.6980   0.2759  56.5808 203.8419
  -1.754  -0.1146   0.00744   0.00081  -0.0271   0.6952   0.2798  56.8747 204.2530
  -1.668  -0.1050   0.00741   0.00080  -0.0271   0.6923   0.2841  57.1765 204.7120
  -1.583  -0.0953   0.00738   0.00079  -0.0271   0.6891   0.2884  57.5084 205.1610
  -1.498  -0.0858   0.00735   0.00077  -0.0271   0.6860   0.2930  57.8199 205.6490
  -1.412  -0.0762   0.00733   0.00076  -0.0271   0.6831   0.2975  58.1181 206.1202
  -1.327  -0.0666   0.00729   0.00075  -0.0271   0.6799   0.3022  58.4520 206.6120
  -1.241  -0.0570   0.00727   0.00074  -0.0271   0.6768   0.3071  58.7638 207.1119
  -1.156  -0.0475   0.00724   0.00072  -0.0271   0.6741   0.3125  59.0417 207.6692
  -1.070  -0.0378   0.00721   0.00071  -0.0271   0.6710   0.3180  59.3596 208.2407
  -0.985  -0.0282   0.00718   0.00070  -0.0271   0.6680   0.3243  59.6659 208.8867
  -0.899  -0.0187   0.00715   0.00069  -0.0270   0.6653   0.3309  59.9401 209.5581
  -0.814  -0.0091   0.00711   0.00068  -0.0271   0.6624   0.3380  60.2332 210.2737
  -0.643   0.0100   0.00704   0.00066  -0.0270   0.6565   0.3536  60.8272 211.8382
  -0.558   0.0195   0.00701   0.00065  -0.0270   0.6537   0.3624  61.1054 212.7098
  -0.472   0.0290   0.00696   0.00064  -0.0270   0.6505   0.3723  61.4233 213.6922
  -0.387   0.0385   0.00692   0.00063  -0.0270   0.6475   0.3834  61.7313 214.7893
  -0.216   0.0574   0.00681   0.00061  -0.0270   0.6414   0.4097  62.3326 217.3538
  -0.131   0.0668   0.00675   0.00060  -0.0269   0.6382   0.4254  62.6544 218.8699
  -0.045   0.0760   0.00670   0.00059  -0.0269   0.6352   0.4426  62.9478 220.5264
   0.040   0.0854   0.00662   0.00058  -0.0269   0.6321   0.4621  63.2618 222.3999
   0.126   0.0946   0.00654   0.00057  -0.0268   0.6288   0.4846  63.5845 224.5505
   0.296   0.1128   0.00634   0.00054  -0.0267   0.6229   0.5405  64.1730 229.8978
   0.382   0.1217   0.00621   0.00053  -0.0266   0.6195   0.5751  64.5068 233.2204
   0.467   0.1303   0.00606   0.00051  -0.0265   0.6161   0.6152  64.8367 237.1222
   0.553   0.1387   0.00589   0.00049  -0.0263   0.6127   0.6624  65.1676 241.8147
   0.638   0.1465   0.00566   0.00050  -0.0259   0.6090   0.7245  65.5312 248.2566
   0.724   0.1544   0.00556   0.00056  -0.0255   0.6055   0.7769  65.8723 254.0412
   0.809   0.1635   0.00554   0.00059  -0.0253   0.6019   0.7993  66.2260 256.6585
   0.894   0.1728   0.00554   0.00061  -0.0251   0.5979   0.8127  66.6216 258.2708
   1.065   0.1916   0.00557   0.00064  -0.0249   0.5897   0.8302  67.4140 260.4571
   1.151   0.2010   0.00559   0.00065  -0.0248   0.5853   0.8367  67.8401 261.2920
   1.236   0.2106   0.00561   0.00066  -0.0248   0.5812   0.8425  68.2419 262.0465
   1.322   0.2201   0.00563   0.00068  -0.0247   0.5771   0.8474  68.6394 262.6914
   1.492   0.2392   0.00567   0.00070  -0.0245   0.5692   0.8558  69.4024 263.8186
   1.578   0.2487   0.00570   0.00071  -0.0245   0.5650   0.8592  69.8087 264.2813
   1.663   0.2582   0.00572   0.00071  -0.0244   0.5609   0.8626  70.1995 264.7479
   1.749   0.2678   0.00574   0.00072  -0.0243   0.5565   0.8656  70.6270 265.1710
   1.834   0.2772   0.00578   0.00073  -0.0243   0.5524   0.8685  71.0199 265.5845
   1.920   0.2870   0.00580   0.00074  -0.0242   0.5479   0.8717  71.4505 266.0298
   2.005   0.2963   0.00583   0.00075  -0.0241   0.5434   0.8741  71.8791 266.3815
   2.091   0.3059   0.00585   0.00076  -0.0241   0.5389   0.8770  72.3155 266.8015
   2.176   0.3153   0.00588   0.00077  -0.0240   0.5341   0.8796  72.7705 267.1770
   2.261   0.3247   0.00591   0.00078  -0.0239   0.5297   0.8822  73.1970 267.5519
   2.347   0.3343   0.00594   0.00079  -0.0238   0.5247   0.8850  73.6742 267.9741
   2.432   0.3436   0.00597   0.00080  -0.0237   0.5199   0.8872  74.1344 268.3035
   2.518   0.3530   0.00600   0.00081  -0.0236   0.5144   0.8897  74.6523 268.6812
   2.603   0.3624   0.00604   0.00081  -0.0235   0.5091   0.8922  75.1642 269.0636
   2.688   0.3717   0.00607   0.00083  -0.0234   0.5031   0.8942  75.7330 269.3787
   2.774   0.3810   0.00611   0.00084  -0.0233   0.4975   0.8965  76.2714 269.7394
   2.859   0.3905   0.00615   0.00084  -0.0232   0.4918   0.8987  76.8157 270.0816
   2.945   0.3997   0.00618   0.00086  -0.0231   0.4865   0.9005  77.3180 270.3700
   3.030   0.4090   0.00622   0.00087  -0.0230   0.4810   0.9026  77.8483 270.6960
   3.116   0.4186   0.00626   0.00087  -0.0230   0.4756   0.9046  78.3630 271.0259
   3.201   0.4276   0.00630   0.00089  -0.0228   0.4697   0.9062  78.9301 271.2824
   3.286   0.4369   0.00634   0.00090  -0.0227   0.4632   0.9080  79.5489 271.5908
   3.372   0.4463   0.00639   0.00091  -0.0226   0.4567   0.9102  80.1748 271.9492
   3.457   0.4553   0.00643   0.00092  -0.0224   0.4499   0.9119  80.8230 272.2405
   3.543   0.4644   0.00647   0.00093  -0.0223   0.4435   0.9139  81.4388 272.5785
   3.628   0.4736   0.00653   0.00095  -0.0222   0.4369   0.9162  82.0744 272.9703
   3.714   0.4825   0.00657   0.00096  -0.0219   0.4298   0.9180  82.7594 273.2857
   3.799   0.4914   0.00662   0.00098  -0.0218   0.4224   0.9202  83.4712 273.6556
   3.884   0.5004   0.00669   0.00099  -0.0216   0.4140   0.9224  84.2877 274.0454
   3.970   0.5090   0.00675   0.00101  -0.0214   0.4045   0.9241  85.2085 274.3590
   4.055   0.5178   0.00683   0.00103  -0.0212   0.3935   0.9261  86.2809 274.7245
   4.141   0.5265   0.00691   0.00105  -0.0210   0.3818   0.9281  87.4361 275.0890
   4.226   0.5349   0.00699   0.00108  -0.0207   0.3694   0.9298  88.6587 275.4019
   4.312   0.5434   0.00710   0.00110  -0.0204   0.3556   0.9317  90.0305 275.7636
   4.397   0.5518   0.00721   0.00113  -0.0202   0.3398   0.9336  91.6149 276.1180
   4.482   0.5596   0.00734   0.00117  -0.0198   0.3214   0.9353  93.4768 276.4549
   4.568   0.5674   0.00751   0.00122  -0.0195   0.2987   0.9374  95.8198 276.8683
   4.653   0.5746   0.00772   0.00129  -0.0190   0.2708   0.9393  98.7810 277.2481
   4.739   0.5812   0.00799   0.00138  -0.0185   0.2374   0.9415 102.4428 277.6744
   4.824   0.5878   0.00827   0.00149  -0.0180   0.2051   0.9437 106.1602 278.1227
   4.910   0.5945   0.00849   0.00159  -0.0175   0.1810   0.9456 109.0723 278.5426
   4.995   0.6020   0.00867   0.00166  -0.0171   0.1644   0.9479 111.1756 279.0223
   5.080   0.6094   0.00881   0.00172  -0.0166   0.1527   0.9498 112.7073 279.4222
   5.166   0.6172   0.00893   0.00178  -0.0163   0.1438   0.9520 113.9007 279.9142
   5.251   0.6249   0.00903   0.00182  -0.0158   0.1368   0.9539 114.8578 280.3562
   5.337   0.6328   0.00912   0.00186  -0.0155   0.1309   0.9562 115.6962 280.8753
   5.422   0.6405   0.00920   0.00190  -0.0150   0.1258   0.9582 116.4168 281.3479
   5.508   0.6483   0.00928   0.00194  -0.0146   0.1212   0.9605 117.0812 281.8992
   5.593   0.6560   0.00935   0.00197  -0.0142   0.1169   0.9625 117.7200 282.4142
   5.678   0.6639   0.00942   0.00200  -0.0138   0.1130   0.9650 118.3028 283.0266
   5.764   0.6716   0.00949   0.00203  -0.0134   0.1092   0.9670 118.8886 283.5632
   5.849   0.6796   0.00956   0.00206  -0.0130   0.1057   0.9691 119.4193 284.1453
   5.935   0.6877   0.00964   0.00209  -0.0127   0.1023   0.9710 119.9513 284.6793
   6.020   0.6962   0.00970   0.00212  -0.0124   0.0990   0.9728 120.4793 285.1866
   6.106   0.7048   0.00979   0.00216  -0.0122   0.0956   0.9744 121.0231 285.6551
   6.191   0.7137   0.00985   0.00218  -0.0121   0.0922   0.9759 121.5811 286.1136
   6.276   0.7228   0.00994   0.00222  -0.0120   0.0889   0.9770 122.1243 286.4804
   6.362   0.7320   0.01002   0.00226  -0.0120   0.0857   0.9783 122.6688 286.8867
   6.447   0.7414   0.01011   0.00229  -0.0120   0.0828   0.9793 123.1768 287.2318
   6.533   0.7509   0.01019   0.00233  -0.0120   0.0797   0.9804 123.7132 287.5913
   6.618   0.7603   0.01027   0.00237  -0.0120   0.0770   0.9816 124.1974 288.0274
   6.704   0.7702   0.01036   0.00241  -0.0121   0.0741   0.9825 124.7152 288.3448
   6.789   0.7799   0.01045   0.00246  -0.0121   0.0716   0.9836 125.1819 288.7487
   6.874   0.7898   0.01054   0.00250  -0.0123   0.0691   0.9847 125.6477 289.1513
   6.960   0.7998   0.01065   0.00255  -0.0124   0.0668   0.9856 126.0759 289.5175
   7.045   0.8098   0.01073   0.00259  -0.0125   0.0646   0.9867 126.5096 289.9752
   7.131   0.8201   0.01084   0.00265  -0.0127   0.0624   0.9875 126.9411 290.3284
   7.216   0.8304   0.01092   0.00270  -0.0130   0.0604   0.9885 127.3299 290.7322
   7.301   0.8407   0.01103   0.00275  -0.0132   0.0584   0.9894 127.7330 291.1644
   7.387   0.8511   0.01114   0.00281  -0.0134   0.0566   0.9902 128.0974 291.5571
   7.472   0.8615   0.01123   0.00286  -0.0136   0.0549   0.9912 128.4566 292.0330
   7.558   0.8719   0.01135   0.00292  -0.0139   0.0532   0.9919 128.8116 292.4169
   7.643   0.8823   0.01146   0.00298  -0.0141   0.0517   0.9928 129.1330 292.8980
   7.729   0.8930   0.01155   0.00304  -0.0144   0.0502   0.9935 129.4705 293.3246
   7.814   0.9035   0.01167   0.00310  -0.0147   0.0487   0.9943 129.8003 293.8297
   7.899   0.9140   0.01179   0.00317  -0.0150   0.0473   0.9951 130.0984 294.3317
   7.985   0.9246   0.01189   0.00323  -0.0153   0.0460   0.9959 130.3983 294.8803
   8.070   0.9352   0.01201   0.00330  -0.0156   0.0447   0.9965 130.7047 295.4074
   8.156   0.9456   0.01215   0.00338  -0.0159   0.0434   0.9973 131.0066 296.0388
   8.241   0.9565   0.01225   0.00344  -0.0162   0.0423   0.9979 131.2746 296.6461
   8.327   0.9671   0.01237   0.00350  -0.0165   0.0411   0.9986 131.5637 297.4465
   8.412   0.9776   0.01251   0.00358  -0.0168   0.0399   0.9993 131.8417 298.5494
   8.498   0.9878   0.01264   0.00366  -0.0171   0.0389   1.0000 132.0951 301.0000
   8.583   0.9934   0.01271   0.00369  -0.0163   0.0381   1.0000 132.2822 301.0000
   8.668   0.9999   0.01279   0.00374  -0.0157   0.0373   1.0000 132.4900 301.0000
   8.754   1.0071   0.01290   0.00379  -0.0154   0.0365   1.0000 132.6957 301.0000
   8.839   1.0146   0.01304   0.00386  -0.0150   0.0357   1.0000 132.8981 301.0000
   8.925   1.0225   0.01316   0.00393  -0.0148   0.0350   1.0000 133.0862 301.0000
   9.010   1.0309   0.01325   0.00399  -0.0146   0.0342   1.0000 133.2739 301.0000
   9.095   1.0392   0.01336   0.00405  -0.0144   0.0335   1.0000 133.4718 301.0000
   9.181   1.0474   0.01349   0.00412  -0.0142   0.0328   1.0000 133.6617 301.0000
   9.266   1.0555   0.01363   0.00420  -0.0140   0.0321   1.0000 133.8443 301.0000
   9.352   1.0634   0.01379   0.00429  -0.0138   0.0314   1.0000 134.0266 301.0000
   9.437   1.0719   0.01389   0.00436  -0.0137   0.0309   1.0000 134.1718 301.0000
   9.523   1.0803   0.01401   0.00443  -0.0135   0.0303   1.0000 134.3312 301.0000
   9.608   1.0886   0.01413   0.00450  -0.0133   0.0298   1.0000 134.4925 301.0000
   9.694   1.0967   0.01427   0.00458  -0.0132   0.0292   1.0000 134.6482 301.0000
   9.779   1.1047   0.01443   0.00468  -0.0129   0.0287   1.0000 134.8001 301.0000
   9.864   1.1121   0.01463   0.00479  -0.0126   0.0281   1.0000 134.9640 301.0000
   9.950   1.1203   0.01476   0.00487  -0.0125   0.0277   1.0000 135.0836 301.0000
  10.035   1.1286   0.01487   0.00495  -0.0123   0.0273   1.0000 135.2080 301.0000
  10.121   1.1368   0.01500   0.00502  -0.0121   0.0268   1.0000 135.3414 301.0000
  10.206   1.1449   0.01513   0.00510  -0.0119   0.0264   1.0000 135.4742 301.0000
  10.291   1.1529   0.01527   0.00519  -0.0117   0.0259   1.0000 135.6039 301.0000
  10.377   1.1607   0.01543   0.00528  -0.0114   0.0255   1.0000 135.7275 301.0000
  10.462   1.1682   0.01560   0.00538  -0.0111   0.0251   1.0000 135.8488 301.0000
  10.548   1.1752   0.01582   0.00551  -0.0108   0.0247   1.0000 135.9792 301.0000
  10.633   1.1831   0.01596   0.00561  -0.0106   0.0244   1.0000 136.0711 301.0000
  10.719   1.1910   0.01610   0.00569  -0.0103   0.0241   1.0000 136.1662 301.0000
  10.804   1.1988   0.01624   0.00578  -0.0101   0.0238   1.0000 136.2670 301.0000
  10.889   1.2065   0.01639   0.00587  -0.0098   0.0235   1.0000 136.3680 301.0000
  10.975   1.2141   0.01654   0.00597  -0.0096   0.0231   1.0000 136.4669 301.0000
  11.060   1.2216   0.01670   0.00607  -0.0093   0.0228   1.0000 136.5635 301.0000
  11.146   1.2289   0.01687   0.00617  -0.0090   0.0225   1.0000 136.6573 301.0000
  11.231   1.2361   0.01706   0.00628  -0.0087   0.0223   1.0000 136.7501 301.0000
  11.317   1.2429   0.01726   0.00640  -0.0083   0.0220   1.0000 136.8464 301.0000
  11.402   1.2491   0.01752   0.00656  -0.0078   0.0216   1.0000 136.9511 301.0000
  11.487   1.2557   0.01773   0.00669  -0.0074   0.0214   1.0000 137.0313 301.0000
  11.573   1.2631   0.01788   0.00680  -0.0071   0.0212   1.0000 137.0953 301.0000
  11.658   1.2703   0.01805   0.00690  -0.0068   0.0210   1.0000 137.1674 301.0000
  11.744   1.2773   0.01822   0.00701  -0.0065   0.0208   1.0000 137.2445 301.0000
  11.829   1.2842   0.01839   0.00712  -0.0061   0.0205   1.0000 137.3241 301.0000
  11.915   1.2911   0.01857   0.00723  -0.0058   0.0203   1.0000 137.4039 301.0000
  12.000   1.2978   0.01876   0.00735  -0.0054   0.0201   1.0000 137.4823 301.0000
