  
       XFOIL         Version 6.99
  
 Calculated polar for: Repaneled_Airfoil                               
  
 1 1 Reynolds number fixed          Mach number fixed         
  
 xtrf =   1.000 (top)        1.000 (bottom)  
 Mach =   0.000     Re =     1.000 e 6     Ncrit =   9.000  9.000
  
   alpha    CL        CD       CDp       CM     Top_Xtr  Bot_Xtr  Top_Itr  Bot_Itr
  ------ -------- --------- --------- -------- -------- -------- -------- --------
  -5.000  -0.6502   0.01184   0.00294  -0.0250   0.7498   0.0239  51.1918 166.1716
  -4.915  -0.6410   0.01176   0.00288  -0.0249   0.7458   0.0245  51.6407 166.3480
  -4.829  -0.6319   0.01170   0.00283  -0.0248   0.7421   0.0250  52.0456 166.5282
  -4.744  -0.6226   0.01163   0.00277  -0.0247   0.7381   0.0256  52.4802 166.7038
  -4.658  -0.6134   0.01157   0.00272  -0.0247   0.7344   0.0261  52.8801 166.8625
  -4.573  -0.6041   0.01151   0.00268  -0.0246   0.7308   0.0266  53.2708 166.9951
  -4.487  -0.5950   0.01142   0.00261  -0.0245   0.7272   0.0272  53.6610 167.1610
  -4.317  -0.5766   0.01127   0.00250  -0.0244   0.7206   0.0284  54.3664 167.5083
  -4.231  -0.5673   0.01120   0.00245  -0.0244   0.7174   0.0290  54.7116 167.6862
  -4.146  -0.5581   0.01114   0.00240  -0.0243   0.7146   0.0296  55.0157 167.8579
  -3.975  -0.5395   0.01100   0.00230  -0.0242   0.7083   0.0309  55.6765 168.2084
  -3.889  -0.5302   0.01093   0.00225  -0.0241   0.7056   0.0316  55.9674 168.4084
  -3.804  -0.5209   0.01086   0.00221  -0.0241   0.7025   0.0324  56.2839 168.6149
  -3.719  -0.5115   0.01080   0.00217  -0.0240   0.6995   0.0331  56.6028 168.8167
  -3.633  -0.5022   0.01075   0.00212  -0.0240   0.6967   0.0338  56.9000 168.9992
  -3.548  -0.4929   0.01068   0.00208  -0.0239   0.6937   0.0346  57.2055 169.2118
  -3.462  -0.4835   0.01061   0.00203  -0.0239   0.6906   0.0355  57.5335 169.4435
  -3.377  -0.4742   0.01055   0.00199  -0.0238   0.6876   0.0365  57.8425 169.6822
  -3.292  -0.4648   0.01050   0.00195  -0.0238   0.6847   0.0373  58.1422 169.9046
  -3.206  -0.4554   0.01044   0.00191  -0.0237   0.6815   0.0382  58.4696 170.1203
  -3.121  -0.4461   0.01037   0.00187  -0.0237   0.6785   0.0392  58.7785 170.3628
  -3.035  -0.4368   0.01031   0.00182  -0.0236   0.6758   0.0403  59.0592 170.6182
  -2.950  -0.4273   0.01026   0.00179  -0.0236   0.6727   0.0413  59.3709 170.8717
  -2.864  -0.4179   0.01020   0.00175  -0.0236   0.6699   0.0423  59.6667 171.1180
  -2.779  -0.4086   0.01014   0.00171  -0.0235   0.6673   0.0436  59.9280 171.4038
  -2.693  -0.3992   0.01008   0.00168  -0.0235   0.6647   0.0449  60.1933 171.7062
  -2.608  -0.3896   0.01004   0.00165  -0.0234   0.6620   0.0461  60.4688 171.9949
  -2.523  -0.3803   0.00997   0.00161  -0.0234   0.6594   0.0478  60.7309 172.3674
  -2.437  -0.3709   0.00992   0.00158  -0.0234   0.6571   0.0498  60.9681 172.7978
  -2.352  -0.3615   0.00986   0.00155  -0.0233   0.6545   0.0517  61.2283 173.2205
  -2.266  -0.3521   0.00980   0.00153  -0.0233   0.6518   0.0540  61.4980 173.6990
  -2.181  -0.3426   0.00976   0.00150  -0.0233   0.6492   0.0562  61.7601 174.1554
  -2.010  -0.3237   0.00966   0.00146  -0.0232   0.6441   0.0607  62.2762 175.0813
  -1.925  -0.3143   0.00960   0.00143  -0.0232   0.6413   0.0630  62.5554 175.5209
  -1.839  -0.3048   0.00957   0.00141  -0.0231   0.6386   0.0651  62.8192 175.9315
  -1.754  -0.2954   0.00951   0.00138  -0.0231   0.6362   0.0670  63.0656 176.2916
  -1.668  -0.2859   0.00946   0.00135  -0.0231   0.6334   0.0688  63.3431 176.6401
  -1.583  -0.2764   0.00942   0.00132  -0.0230   0.6307   0.0705  63.6151 176.9562
  -1.498  -0.2670   0.00937   0.00129  -0.0230   0.6282   0.0723  63.8634 177.2799
  -1.412  -0.2575   0.00933   0.00127  -0.0230   0.6258   0.0742  64.0987 177.6327
  -1.327  -0.2479   0.00929   0.00125  -0.0229   0.6232   0.0761  64.3545 177.9782
  -1.241  -0.2385   0.00924   0.00122  -0.0229   0.6207   0.0781  64.6002 178.3272
  -1.156  -0.2290   0.00920   0.00120  -0.0229   0.6184   0.0802  64.8264 178.7028
  -1.070  -0.2194   0.00917   0.00117  -0.0228   0.6163   0.0823  65.0353 179.0548
  -0.985  -0.2099   0.00911   0.00115  -0.0228   0.6139   0.0844  65.2739 179.4229
  -0.899  -0.2003   0.00907   0.00113  -0.0228   0.6114   0.0867  65.5176 179.8053
  -0.814  -0.1908   0.00904   0.00111  -0.0228   0.6090   0.0888  65.7539 180.1693
  -0.729  -0.1814   0.00900   0.00109  -0.0227   0.6068   0.0913  65.9726 180.5754
  -0.643  -0.1717   0.00897   0.00108  -0.0227   0.6043   0.0937  66.2165 180.9772
  -0.558  -0.1622   0.00892   0.00106  -0.0227   0.6018   0.0961  66.4681 181.3642
  -0.472  -0.1526   0.00889   0.00104  -0.0227   0.5993   0.0986  66.7124 181.7633
  -0.387  -0.1431   0.00887   0.00102  -0.0226   0.5970   0.1009  66.9365 182.1219
  -0.301  -0.1335   0.00883   0.00101  -0.0226   0.5946   0.1032  67.1698 182.4925
  -0.216  -0.1239   0.00880   0.00099  -0.0226   0.5921   0.1057  67.4170 182.8766
  -0.131  -0.1143   0.00876   0.00097  -0.0226   0.5896   0.1081  67.6557 183.2453
  -0.045  -0.1048   0.00873   0.00096  -0.0226   0.5874   0.1108  67.8744 183.6528
   0.040  -0.0952   0.00871   0.00095  -0.0225   0.5852   0.1134  68.0832 184.0407
   0.126  -0.0856   0.00867   0.00093  -0.0225   0.5829   0.1160  68.3145 184.4389
   0.211  -0.0759   0.00865   0.00092  -0.0225   0.5805   0.1188  68.5446 184.8524
   0.296  -0.0664   0.00862   0.00091  -0.0225   0.5783   0.1214  68.7633 185.2325
   0.382  -0.0568   0.00860   0.00089  -0.0225   0.5762   0.1243  68.9646 185.6438
   0.467  -0.0471   0.00857   0.00088  -0.0225   0.5739   0.1271  69.1825 186.0428
   0.553  -0.0375   0.00853   0.00087  -0.0224   0.5715   0.1300  69.4155 186.4571
   0.638  -0.0279   0.00852   0.00086  -0.0224   0.5692   0.1330  69.6462 186.8857
   0.724  -0.0184   0.00849   0.00085  -0.0224   0.5669   0.1359  69.8634 187.2777
   0.809  -0.0088   0.00847   0.00084  -0.0224   0.5648   0.1390  70.0728 187.7036
   0.894   0.0010   0.00844   0.00083  -0.0224   0.5623   0.1419  70.3100 188.1078
   0.980   0.0105   0.00841   0.00082  -0.0224   0.5599   0.1451  70.5454 188.5328
   1.065   0.0202   0.00840   0.00081  -0.0224   0.5576   0.1483  70.7679 188.9668
   1.151   0.0297   0.00838   0.00080  -0.0223   0.5555   0.1515  70.9684 189.3957
   1.236   0.0394   0.00835   0.00079  -0.0223   0.5533   0.1550  71.1816 189.8577
   1.322   0.0491   0.00833   0.00078  -0.0223   0.5510   0.1583  71.4019 190.2886
   1.407   0.0587   0.00830   0.00077  -0.0223   0.5488   0.1620  71.6181 190.7617
   1.492   0.0683   0.00829   0.00077  -0.0223   0.5467   0.1654  71.8212 191.2068
   1.578   0.0779   0.00827   0.00076  -0.0223   0.5447   0.1693  72.0086 191.6988
   1.663   0.0876   0.00824   0.00075  -0.0223   0.5425   0.1732  72.2218 192.1925
   1.749   0.0972   0.00822   0.00074  -0.0223   0.5402   0.1776  72.4426 192.7486
   1.834   0.1068   0.00820   0.00074  -0.0223   0.5380   0.1820  72.6597 193.2895
   1.920   0.1164   0.00818   0.00073  -0.0223   0.5359   0.1868  72.8628 193.8788
   2.005   0.1260   0.00816   0.00072  -0.0222   0.5339   0.1916  73.0556 194.4556
   2.091   0.1357   0.00814   0.00072  -0.0222   0.5316   0.1966  73.2757 195.0656
   2.176   0.1453   0.00811   0.00071  -0.0222   0.5293   0.2020  73.4989 195.7054
   2.261   0.1549   0.00808   0.00070  -0.0222   0.5270   0.2076  73.7156 196.3619
   2.347   0.1644   0.00807   0.00070  -0.0222   0.5249   0.2138  73.9173 197.0902
   2.432   0.1740   0.00804   0.00069  -0.0222   0.5228   0.2210  74.1200 197.9122
   2.518   0.1836   0.00800   0.00069  -0.0222   0.5205   0.2291  74.3402 198.8348
   2.603   0.1932   0.00797   0.00068  -0.0222   0.5182   0.2388  74.5578 199.9324
   2.688   0.2026   0.00793   0.00068  -0.0221   0.5161   0.2507  74.7633 201.2433
   2.774   0.2119   0.00788   0.00067  -0.0221   0.5141   0.2658  74.9533 202.8934
   2.859   0.2213   0.00781   0.00067  -0.0221   0.5121   0.2855  75.1509 204.9966
   2.945   0.2305   0.00772   0.00066  -0.0220   0.5099   0.3119  75.3612 207.7446
   3.030   0.2394   0.00760   0.00066  -0.0219   0.5077   0.3490  75.5680 211.5031
   3.116   0.2477   0.00740   0.00064  -0.0218   0.5057   0.4124  75.7610 217.7352
   3.201   0.2475   0.00623   0.00053  -0.0203   0.5043   0.7396  75.9009 250.0000
   3.286   0.2525   0.00599   0.00064  -0.0191   0.5025   0.8426  76.0664 262.1601
   3.372   0.2613   0.00599   0.00069  -0.0188   0.5004   0.8614  76.2719 264.6790
   3.457   0.2704   0.00600   0.00072  -0.0186   0.4982   0.8729  76.4818 266.2920
   3.543   0.2796   0.00602   0.00074  -0.0184   0.4961   0.8815  76.6877 267.5427
   3.628   0.2887   0.00605   0.00077  -0.0182   0.4941   0.8886  76.8812 268.6023
   3.714   0.2978   0.00608   0.00079  -0.0180   0.4921   0.8946  77.0688 269.5240
   3.799   0.3071   0.00610   0.00082  -0.0179   0.4899   0.8998  77.2799 270.3307
   3.884   0.3164   0.00612   0.00083  -0.0178   0.4877   0.9044  77.4957 271.0676
   3.970   0.3256   0.00615   0.00085  -0.0176   0.4855   0.9079  77.7043 271.6536
   4.055   0.3348   0.00619   0.00087  -0.0174   0.4834   0.9114  77.9000 272.2184
   4.141   0.3440   0.00621   0.00089  -0.0173   0.4815   0.9147  78.0908 272.7758
   4.226   0.3532   0.00624   0.00091  -0.0171   0.4793   0.9176  78.3006 273.2806
   4.312   0.3624   0.00626   0.00093  -0.0169   0.4771   0.9207  78.5115 273.8238
   4.397   0.3714   0.00629   0.00094  -0.0167   0.4750   0.9233  78.7129 274.2906
   4.482   0.3804   0.00633   0.00096  -0.0165   0.4730   0.9261  78.9012 274.7884
   4.568   0.3894   0.00636   0.00098  -0.0163   0.4711   0.9285  79.0878 275.2344
   4.653   0.3985   0.00638   0.00100  -0.0161   0.4689   0.9310  79.2975 275.7014
   4.739   0.4075   0.00640   0.00101  -0.0159   0.4667   0.9334  79.5112 276.1519
   4.824   0.4164   0.00643   0.00103  -0.0157   0.4645   0.9354  79.7183 276.5443
   4.910   0.4255   0.00647   0.00104  -0.0155   0.4625   0.9378  79.9134 276.9922
   4.995   0.4343   0.00650   0.00106  -0.0153   0.4605   0.9394  80.1040 277.3147
   5.080   0.4434   0.00652   0.00107  -0.0151   0.4584   0.9413  80.3115 277.7066
   5.166   0.4524   0.00654   0.00108  -0.0149   0.4562   0.9433  80.5185 278.1138
   5.251   0.4610   0.00657   0.00110  -0.0146   0.4542   0.9451  80.7161 278.4788
   5.337   0.4699   0.00661   0.00111  -0.0144   0.4522   0.9472  80.9032 278.9219
   5.422   0.4786   0.00663   0.00112  -0.0141   0.4503   0.9488  81.0888 279.2645
   5.508   0.4874   0.00665   0.00114  -0.0139   0.4482   0.9505  81.2965 279.6372
   5.593   0.4963   0.00668   0.00115  -0.0137   0.4460   0.9523  81.5094 280.0491
   5.678   0.5049   0.00671   0.00116  -0.0134   0.4438   0.9537  81.7147 280.3670
   5.764   0.5136   0.00674   0.00117  -0.0131   0.4418   0.9554  81.9080 280.7428
   5.849   0.5225   0.00677   0.00118  -0.0129   0.4398   0.9570  82.0999 281.1118
   5.935   0.5312   0.00678   0.00119  -0.0126   0.4377   0.9583  82.3101 281.4385
   6.020   0.5400   0.00681   0.00119  -0.0124   0.4355   0.9601  82.5218 281.8603
   6.106   0.5486   0.00684   0.00120  -0.0121   0.4334   0.9616  82.7247 282.2265
   6.191   0.5572   0.00687   0.00121  -0.0118   0.4314   0.9631  82.9141 282.6084
   6.276   0.5659   0.00690   0.00122  -0.0116   0.4295   0.9648  83.1033 283.0362
   6.362   0.5749   0.00691   0.00123  -0.0114   0.4273   0.9659  83.3138 283.3351
   6.447   0.5838   0.00694   0.00124  -0.0112   0.4251   0.9673  83.5314 283.6906
   6.533   0.5927   0.00697   0.00124  -0.0110   0.4228   0.9687  83.7466 284.0741
   6.618   0.6017   0.00701   0.00125  -0.0108   0.4207   0.9698  83.9510 284.3894
   6.704   0.6106   0.00703   0.00126  -0.0107   0.4186   0.9714  84.1622 284.8211
   6.789   0.6198   0.00705   0.00127  -0.0105   0.4163   0.9727  84.3869 285.2179
   6.874   0.6291   0.00708   0.00128  -0.0104   0.4140   0.9740  84.6089 285.5989
   6.960   0.6381   0.00711   0.00128  -0.0102   0.4119   0.9755  84.8145 286.0556
   7.045   0.6479   0.00716   0.00130  -0.0103   0.4098   0.9766  85.0176 286.3914
   7.131   0.6577   0.00718   0.00130  -0.0102   0.4072   0.9780  85.2664 286.8473
   7.216   0.6679   0.00721   0.00132  -0.0104   0.4041   0.9792  85.5697 287.2311
   7.301   0.6785   0.00726   0.00133  -0.0105   0.4008   0.9804  85.8919 287.6353
   7.387   0.6888   0.00730   0.00134  -0.0107   0.3975   0.9817  86.2225 288.0971
   7.472   0.7004   0.00734   0.00135  -0.0111   0.3936   0.9824  86.6065 288.3529
   7.558   0.7112   0.00740   0.00136  -0.0114   0.3900   0.9832  86.9545 288.6256
   7.643   0.7215   0.00743   0.00137  -0.0115   0.3865   0.9840  87.3013 288.9457
   7.729   0.7323   0.00747   0.00138  -0.0118   0.3826   0.9844  87.6867 289.0993
   7.814   0.7428   0.00753   0.00139  -0.0120   0.3786   0.9847  88.0752 289.2003
   7.899   0.7535   0.00756   0.00139  -0.0123   0.3739   0.9849  88.5406 289.3039
   8.070   0.7744   0.00766   0.00141  -0.0127   0.3648   0.9856  89.4464 289.5650
   8.156   0.7846   0.00772   0.00142  -0.0129   0.3607   0.9860  89.8612 289.7399
   8.241   0.7945   0.00776   0.00143  -0.0130   0.3568   0.9866  90.2464 289.9822
   8.327   0.8052   0.00781   0.00144  -0.0133   0.3525   0.9869  90.6828 290.0847
   8.412   0.8158   0.00788   0.00146  -0.0136   0.3484   0.9871  91.0937 290.1841
   8.498   0.8266   0.00792   0.00147  -0.0139   0.3439   0.9873  91.5456 290.2850
   8.668   0.8479   0.00803   0.00150  -0.0144   0.3354   0.9879  92.4032 290.5155
   8.754   0.8584   0.00810   0.00152  -0.0146   0.3311   0.9882  92.8394 290.6570
   8.839   0.8687   0.00816   0.00153  -0.0149   0.3273   0.9886  93.2267 290.8329
   8.925   0.8790   0.00821   0.00155  -0.0151   0.3233   0.9890  93.6419 291.0270
   9.010   0.8898   0.00829   0.00157  -0.0154   0.3191   0.9892  94.0693 291.1130
   9.095   0.9006   0.00834   0.00159  -0.0157   0.3141   0.9894  94.5831 291.2061
   9.181   0.9112   0.00842   0.00162  -0.0160   0.3089   0.9896  95.1171 291.3207
   9.266   0.9218   0.00850   0.00164  -0.0162   0.3034   0.9899  95.6960 291.4474
   9.352   0.9322   0.00858   0.00167  -0.0165   0.2980   0.9902  96.2562 291.6057
   9.437   0.9423   0.00867   0.00170  -0.0167   0.2922   0.9906  96.8660 291.7985
   9.523   0.9525   0.00875   0.00173  -0.0169   0.2864   0.9911  97.4809 292.0257
   9.608   0.9629   0.00885   0.00176  -0.0172   0.2797   0.9913  98.1872 292.1383
   9.694   0.9732   0.00896   0.00180  -0.0174   0.2728   0.9916  98.9283 292.2733
   9.779   0.9835   0.00906   0.00184  -0.0177   0.2657   0.9919  99.6930 292.4294
   9.864   0.9936   0.00917   0.00188  -0.0179   0.2582   0.9922 100.5085 292.6136
   9.950   1.0034   0.00930   0.00193  -0.0180   0.2498   0.9926 101.4349 292.8491
  10.035   1.0132   0.00944   0.00198  -0.0182   0.2413   0.9930 102.3814 293.0779
  10.121   1.0232   0.00959   0.00205  -0.0184   0.2311   0.9933 103.5337 293.2386
  10.206   1.0327   0.00978   0.00213  -0.0186   0.2190   0.9937 104.9098 293.4549
  10.291   1.0421   0.00998   0.00222  -0.0188   0.2057   0.9941 106.4649 293.7169
  10.377   1.0508   0.01025   0.00234  -0.0188   0.1897   0.9946 108.3902 294.0484
  10.462   1.0595   0.01056   0.00249  -0.0190   0.1709   0.9950 110.7278 294.3173
  10.548   1.0678   0.01091   0.00267  -0.0190   0.1514   0.9955 113.2535 294.6601
  10.633   1.0759   0.01127   0.00286  -0.0191   0.1324   0.9961 115.8569 295.0760
  10.719   1.0843   0.01163   0.00306  -0.0192   0.1155   0.9965 118.3085 295.4420
  10.804   1.0929   0.01195   0.00324  -0.0193   0.1017   0.9971 120.4254 295.8815
  10.889   1.1017   0.01224   0.00340  -0.0194   0.0903   0.9975 122.2619 296.3028
  10.975   1.1108   0.01250   0.00354  -0.0195   0.0814   0.9979 123.7841 296.7601
  11.060   1.1199   0.01274   0.00368  -0.0197   0.0739   0.9984 125.1162 297.2595
  11.146   1.1293   0.01296   0.00380  -0.0199   0.0680   0.9988 126.2106 297.8042
  11.231   1.1388   0.01316   0.00391  -0.0201   0.0627   0.9992 127.2284 298.4364
  11.317   1.1482   0.01337   0.00403  -0.0203   0.0582   0.9996 128.1250 299.2938
  11.402   1.1569   0.01355   0.00413  -0.0203   0.0545   0.9999 128.8825 301.0000
  11.487   1.1613   0.01368   0.00419  -0.0194   0.0521   0.9999 129.4090 301.0000
  11.573   1.1652   0.01382   0.00426  -0.0184   0.0496   0.9999 129.9369 301.0000
  11.658   1.1693   0.01394   0.00432  -0.0174   0.0475   0.9999 130.3984 301.0000
  11.744   1.1731   0.01407   0.00438  -0.0164   0.0455   0.9999 130.8494 301.0000
  11.829   1.1772   0.01419   0.00443  -0.0154   0.0439   0.9999 131.2321 301.0000
  11.915   1.1815   0.01432   0.00449  -0.0145   0.0423   0.9999 131.6117 301.0000
  12.000   1.1858   0.01446   0.00456  -0.0136   0.0408   0.9999 131.9595 301.0000
