  
       XFOIL         Version 6.99
  
 Calculated polar for: Repaneled_Airfoil                               
  
 1 1 Reynolds number fixed          Mach number fixed         
  
 xtrf =   1.000 (top)        1.000 (bottom)  
 Mach =   0.000     Re =     1.000 e 6     Ncrit =   9.000  9.000
  
   alpha    CL        CD       CDp       CM     Top_Xtr  Bot_Xtr  Top_Itr  Bot_Itr
  ------ -------- --------- --------- -------- -------- -------- -------- --------
  -5.000  -0.3984   0.00925   0.00186  -0.0145   0.7267   0.1935  53.4637 194.3932
  -4.915  -0.3886   0.00924   0.00185  -0.0144   0.7258   0.1945  53.5560 194.5153
  -4.829  -0.3788   0.00922   0.00184  -0.0144   0.7250   0.1955  53.6445 194.6359
  -4.744  -0.3689   0.00920   0.00183  -0.0143   0.7242   0.1965  53.7283 194.7567
  -4.658  -0.3591   0.00920   0.00182  -0.0143   0.7235   0.1975  53.8070 194.8805
  -4.573  -0.3491   0.00920   0.00181  -0.0142   0.7228   0.1984  53.8818 194.9910
  -4.487  -0.3396   0.00914   0.00179  -0.0142   0.7221   0.1996  53.9538 195.1336
  -4.402  -0.3300   0.00910   0.00178  -0.0141   0.7213   0.2006  54.0334 195.2513
  -4.317  -0.3201   0.00907   0.00178  -0.0141   0.7204   0.2015  54.1299 195.3567
  -4.231  -0.3103   0.00904   0.00178  -0.0140   0.7195   0.2023  54.2254 195.4543
  -4.146  -0.3005   0.00901   0.00176  -0.0140   0.7186   0.2030  54.3185 195.5398
  -4.060  -0.2907   0.00898   0.00175  -0.0140   0.7178   0.2037  54.4094 195.6182
  -3.975  -0.2809   0.00895   0.00173  -0.0139   0.7169   0.2044  54.4980 195.6966
  -3.889  -0.2710   0.00893   0.00171  -0.0139   0.7161   0.2050  54.5843 195.7747
  -3.804  -0.2612   0.00891   0.00169  -0.0139   0.7153   0.2056  54.6680 195.8479
  -3.719  -0.2514   0.00888   0.00167  -0.0138   0.7146   0.2062  54.7496 195.9138
  -3.633  -0.2416   0.00886   0.00164  -0.0138   0.7138   0.2067  54.8293 195.9720
  -3.548  -0.2319   0.00882   0.00161  -0.0137   0.7131   0.2073  54.9075 196.0405
  -3.462  -0.2223   0.00877   0.00158  -0.0137   0.7123   0.2079  54.9861 196.1212
  -3.377  -0.2126   0.00872   0.00157  -0.0137   0.7113   0.2086  55.0903 196.1936
  -3.292  -0.2028   0.00868   0.00155  -0.0136   0.7102   0.2092  55.2038 196.2634
  -3.206  -0.1930   0.00864   0.00154  -0.0136   0.7092   0.2097  55.3173 196.3326
  -3.121  -0.1832   0.00861   0.00152  -0.0136   0.7081   0.2103  55.4274 196.4022
  -3.035  -0.1734   0.00857   0.00151  -0.0136   0.7071   0.2109  55.5322 196.4734
  -2.950  -0.1636   0.00854   0.00148  -0.0135   0.7061   0.2116  55.6386 196.5469
  -2.864  -0.1539   0.00851   0.00146  -0.0135   0.7050   0.2122  55.7547 196.6238
  -2.779  -0.1441   0.00849   0.00143  -0.0135   0.7038   0.2129  55.8761 196.7030
  -2.608  -0.1245   0.00843   0.00138  -0.0134   0.7010   0.2142  56.1689 196.8569
  -2.523  -0.1146   0.00840   0.00136  -0.0134   0.6994   0.2148  56.3320 196.9261
  -2.437  -0.1048   0.00838   0.00134  -0.0134   0.6981   0.2154  56.4750 196.9903
  -2.352  -0.0951   0.00833   0.00132  -0.0134   0.6968   0.2162  56.6095 197.0861
  -2.266  -0.0854   0.00828   0.00129  -0.0134   0.6955   0.2170  56.7433 197.1819
  -2.181  -0.0757   0.00824   0.00127  -0.0133   0.6942   0.2178  56.8782 197.2734
  -2.095  -0.0660   0.00822   0.00124  -0.0133   0.6928   0.2186  57.0171 197.3643
  -2.010  -0.0562   0.00818   0.00123  -0.0133   0.6910   0.2194  57.2017 197.4562
  -1.925  -0.0463   0.00815   0.00121  -0.0133   0.6893   0.2202  57.3782 197.5480
  -1.839  -0.0365   0.00812   0.00120  -0.0133   0.6877   0.2210  57.5418 197.6389
  -1.754  -0.0267   0.00810   0.00117  -0.0133   0.6862   0.2217  57.7014 197.7277
  -1.668  -0.0169   0.00807   0.00114  -0.0133   0.6847   0.2225  57.8548 197.8151
  -1.583  -0.0072   0.00806   0.00112  -0.0133   0.6833   0.2232  57.9962 197.8991
  -1.498   0.0027   0.00804   0.00110  -0.0133   0.6815   0.2239  58.1837 197.9770
  -1.412   0.0125   0.00800   0.00109  -0.0133   0.6797   0.2247  58.3671 198.0749
  -1.327   0.0222   0.00796   0.00107  -0.0133   0.6779   0.2256  58.5451 198.1778
  -1.241   0.0319   0.00792   0.00105  -0.0133   0.6762   0.2265  58.7185 198.2774
  -1.156   0.0417   0.00790   0.00103  -0.0133   0.6746   0.2274  58.8830 198.3783
  -1.070   0.0514   0.00788   0.00101  -0.0133   0.6730   0.2283  59.0487 198.4821
  -0.985   0.0613   0.00785   0.00100  -0.0134   0.6710   0.2293  59.2537 198.5895
  -0.899   0.0711   0.00783   0.00099  -0.0134   0.6690   0.2302  59.4505 198.6980
  -0.814   0.0809   0.00781   0.00097  -0.0134   0.6671   0.2312  59.6395 198.8065
  -0.729   0.0907   0.00779   0.00095  -0.0134   0.6653   0.2321  59.8270 198.9117
  -0.558   0.1103   0.00774   0.00092  -0.0135   0.6609   0.2341  60.2669 199.1386
  -0.472   0.1200   0.00771   0.00090  -0.0135   0.6582   0.2352  60.5435 199.2640
  -0.387   0.1297   0.00769   0.00088  -0.0135   0.6554   0.2364  60.8195 199.3948
  -0.301   0.1394   0.00767   0.00086  -0.0135   0.6527   0.2376  61.0917 199.5328
  -0.216   0.1492   0.00765   0.00085  -0.0135   0.6495   0.2389  61.4133 199.6782
  -0.131   0.1590   0.00764   0.00083  -0.0135   0.6465   0.2402  61.7104 199.8235
  -0.045   0.1687   0.00764   0.00081  -0.0136   0.6439   0.2414  61.9736 199.9615
   0.040   0.1785   0.00761   0.00081  -0.0136   0.6408   0.2428  62.2765 200.1128
   0.126   0.1882   0.00759   0.00079  -0.0136   0.6376   0.2442  62.5967 200.2707
   0.211   0.1979   0.00758   0.00078  -0.0136   0.6345   0.2457  62.8992 200.4344
   0.296   0.2076   0.00756   0.00077  -0.0137   0.6313   0.2472  63.2213 200.6073
   0.382   0.2173   0.00755   0.00076  -0.0137   0.6275   0.2488  63.5905 200.7868
   0.467   0.2270   0.00756   0.00074  -0.0137   0.6237   0.2504  63.9695 200.9628
   0.553   0.2367   0.00754   0.00073  -0.0137   0.6187   0.2521  64.4562 201.1523
   0.638   0.2462   0.00754   0.00072  -0.0137   0.6131   0.2540  65.0126 201.3582
   0.724   0.2559   0.00754   0.00071  -0.0138   0.6059   0.2561  65.7091 201.5825
   0.809   0.2654   0.00755   0.00069  -0.0138   0.5986   0.2582  66.4263 201.8156
   0.980   0.2844   0.00758   0.00067  -0.0138   0.5822   0.2627  68.0146 202.3050
   1.151   0.3032   0.00764   0.00067  -0.0138   0.5612   0.2681  70.0400 202.8931
   1.236   0.3125   0.00769   0.00067  -0.0138   0.5478   0.2709  71.3163 203.2005
   1.322   0.3216   0.00776   0.00068  -0.0138   0.5312   0.2742  72.9067 203.5542
   1.407   0.3304   0.00788   0.00071  -0.0137   0.5081   0.2778  75.1176 203.9367
   1.492   0.3387   0.00808   0.00076  -0.0137   0.4727   0.2815  78.4916 204.3323
   1.578   0.3462   0.00841   0.00086  -0.0135   0.4204   0.2857  83.5125 204.7804
   1.663   0.3494   0.00943   0.00122  -0.0131   0.2720   0.2890  98.4842 205.1266
   1.749   0.3537   0.01026   0.00156  -0.0127   0.1439   0.2929 113.7371 205.5378
   1.834   0.3625   0.01037   0.00161  -0.0127   0.1342   0.2983 115.0699 206.1034
   1.920   0.3714   0.01043   0.00166  -0.0127   0.1289   0.3045 115.8238 206.7447
   2.005   0.3805   0.01046   0.00169  -0.0126   0.1249   0.3110 116.4030 207.4168
   2.091   0.3896   0.01051   0.00173  -0.0126   0.1213   0.3181 116.9185 208.1512
   2.176   0.3987   0.01054   0.00176  -0.0126   0.1184   0.3259 117.3494 208.9557
   2.261   0.4078   0.01057   0.00179  -0.0126   0.1156   0.3342 117.7646 209.7919
   2.347   0.4168   0.01060   0.00182  -0.0126   0.1131   0.3428 118.1324 210.6618
   2.432   0.4260   0.01062   0.00185  -0.0126   0.1107   0.3518 118.5037 211.5693
   2.518   0.4350   0.01065   0.00187  -0.0126   0.1084   0.3612 118.8612 212.5059
   2.603   0.4440   0.01067   0.00190  -0.0126   0.1062   0.3711 119.1896 213.4865
   2.688   0.4531   0.01069   0.00193  -0.0125   0.1040   0.3814 119.5359 214.5120
   2.774   0.4621   0.01072   0.00196  -0.0125   0.1019   0.3923 119.8646 215.5777
   2.859   0.4711   0.01074   0.00199  -0.0125   0.1000   0.4036 120.1676 216.6866
   2.945   0.4801   0.01075   0.00202  -0.0125   0.0980   0.4156 120.4887 217.8523
   3.030   0.4890   0.01077   0.00204  -0.0125   0.0961   0.4281 120.7919 219.0612
   3.116   0.4978   0.01080   0.00208  -0.0124   0.0944   0.4414 121.0682 220.3405
   3.201   0.5067   0.01080   0.00211  -0.0124   0.0927   0.4560 121.3569 221.7439
   3.286   0.5155   0.01081   0.00213  -0.0123   0.0908   0.4715 121.6592 223.2277
   3.372   0.5242   0.01083   0.00216  -0.0123   0.0891   0.4890 121.9511 224.9018
   3.457   0.5328   0.01082   0.00219  -0.0122   0.0874   0.5090 122.2393 226.8168
   3.543   0.5413   0.01080   0.00222  -0.0121   0.0855   0.5330 122.5485 229.1092
   3.628   0.5492   0.01077   0.00225  -0.0119   0.0839   0.5650 122.8316 232.1889
   3.714   0.5554   0.01060   0.00225  -0.0114   0.0825   0.6356 123.0693 239.0695
   3.799   0.5508   0.00987   0.00229  -0.0083   0.0820   0.9001 123.1623 270.2433
   3.884   0.5590   0.00992   0.00235  -0.0080   0.0803   0.9145 123.4496 272.6279
   3.970   0.5675   0.00999   0.00240  -0.0078   0.0787   0.9223 123.7355 273.9890
   4.055   0.5758   0.01009   0.00245  -0.0077   0.0772   0.9281 124.0086 275.0329
   4.141   0.5845   0.01014   0.00250  -0.0075   0.0757   0.9328 124.2750 275.9251
   4.226   0.5930   0.01021   0.00254  -0.0074   0.0741   0.9367 124.5612 276.6869
   4.312   0.6015   0.01030   0.00259  -0.0072   0.0726   0.9402 124.8301 277.3769
   4.397   0.6098   0.01038   0.00263  -0.0071   0.0713   0.9435 125.0829 278.0469
   4.482   0.6184   0.01045   0.00268  -0.0069   0.0699   0.9462 125.3414 278.6154
   4.568   0.6267   0.01053   0.00273  -0.0068   0.0685   0.9489 125.6004 279.1837
   4.653   0.6350   0.01062   0.00278  -0.0066   0.0672   0.9513 125.8460 279.7228
   4.739   0.6432   0.01071   0.00283  -0.0064   0.0660   0.9535 126.0851 280.2209
   4.824   0.6516   0.01078   0.00288  -0.0063   0.0647   0.9556 126.3376 280.6999
   4.910   0.6599   0.01086   0.00292  -0.0061   0.0633   0.9575 126.6054 281.1520
   4.995   0.6681   0.01096   0.00297  -0.0059   0.0620   0.9592 126.8642 281.5527
   5.080   0.6761   0.01105   0.00301  -0.0057   0.0607   0.9611 127.1090 282.0211
   5.166   0.6847   0.01112   0.00306  -0.0056   0.0594   0.9626 127.3725 282.3786
   5.251   0.6928   0.01121   0.00311  -0.0054   0.0581   0.9644 127.6329 282.8377
   5.337   0.7009   0.01131   0.00316  -0.0053   0.0569   0.9659 127.8820 283.2481
   5.422   0.7091   0.01141   0.00321  -0.0051   0.0558   0.9676 128.1203 283.6843
   5.508   0.7173   0.01149   0.00326  -0.0049   0.0546   0.9692 128.3655 284.1270
   5.593   0.7259   0.01159   0.00331  -0.0049   0.0534   0.9705 128.6164 284.4969
   5.678   0.7336   0.01169   0.00336  -0.0047   0.0523   0.9722 128.8449 284.9633
   5.764   0.7424   0.01181   0.00343  -0.0047   0.0512   0.9732 129.0779 285.2710
   5.849   0.7513   0.01189   0.00348  -0.0047   0.0502   0.9743 129.3075 285.6190
   5.935   0.7593   0.01198   0.00353  -0.0045   0.0491   0.9758 129.5397 286.0440
   6.020   0.7688   0.01210   0.00359  -0.0047   0.0481   0.9766 129.7752 286.3007
   6.106   0.7775   0.01224   0.00366  -0.0048   0.0470   0.9775 130.0030 286.6081
   6.191   0.7857   0.01232   0.00370  -0.0046   0.0462   0.9788 130.1892 287.0065
   6.276   0.7957   0.01242   0.00377  -0.0049   0.0453   0.9793 130.4144 287.2006
   6.362   0.8054   0.01254   0.00383  -0.0052   0.0443   0.9800 130.6320 287.4329
   6.447   0.8143   0.01267   0.00389  -0.0053   0.0434   0.9809 130.8350 287.7348
   6.533   0.8228   0.01281   0.00397  -0.0054   0.0426   0.9818 131.0355 288.0734
   6.618   0.8333   0.01292   0.00404  -0.0058   0.0418   0.9823 131.2270 288.2408
   6.704   0.8434   0.01304   0.00411  -0.0062   0.0409   0.9828 131.4311 288.4357
   6.789   0.8529   0.01316   0.00418  -0.0064   0.0401   0.9835 131.6278 288.6724
   6.874   0.8613   0.01330   0.00425  -0.0064   0.0394   0.9844 131.8080 289.0210
   6.960   0.8712   0.01349   0.00435  -0.0069   0.0385   0.9847 132.0160 289.1571
   7.045   0.8819   0.01360   0.00443  -0.0074   0.0379   0.9851 132.1826 289.2937
   7.131   0.8926   0.01373   0.00450  -0.0079   0.0371   0.9855 132.3753 289.4613
   7.216   0.9029   0.01386   0.00458  -0.0084   0.0363   0.9860 132.5698 289.6763
   7.301   0.9121   0.01400   0.00466  -0.0086   0.0356   0.9869 132.7509 290.0111
   7.387   0.9231   0.01421   0.00477  -0.0093   0.0348   0.9871 132.9599 290.1126
   7.472   0.9349   0.01436   0.00486  -0.0101   0.0341   0.9873 133.1384 290.2165
   7.558   0.9475   0.01450   0.00496  -0.0111   0.0334   0.9876 133.3369 290.3458
   7.643   0.9609   0.01466   0.00507  -0.0123   0.0326   0.9881 133.5447 290.5562
   7.729   0.9733   0.01485   0.00518  -0.0132   0.0319   0.9891 133.7374 291.0057
   7.814   0.9894   0.01514   0.00536  -0.0151   0.0310   0.9896 133.9773 291.2389
   7.899   1.0063   0.01533   0.00551  -0.0170   0.0303   0.9903 134.1650 291.5619
   7.985   1.0212   0.01551   0.00564  -0.0185   0.0296   0.9913 134.3647 292.0511
   8.070   1.0382   0.01571   0.00578  -0.0205   0.0289   0.9918 134.5855 292.3383
   8.156   1.0527   0.01593   0.00591  -0.0220   0.0282   0.9925 134.7813 292.7290
   8.241   1.0656   0.01622   0.00609  -0.0232   0.0274   0.9933 134.9878 293.1642
   8.327   1.0809   0.01638   0.00620  -0.0248   0.0269   0.9938 135.1382 293.4896
   8.412   1.0939   0.01654   0.00632  -0.0259   0.0264   0.9945 135.3022 293.9172
   8.498   1.1063   0.01670   0.00642  -0.0269   0.0258   0.9950 135.4654 294.2136
   8.583   1.1168   0.01686   0.00652  -0.0275   0.0254   0.9953 135.6110 294.4524
   8.668   1.1256   0.01703   0.00661  -0.0278   0.0249   0.9957 135.7390 294.6941
   8.754   1.1330   0.01722   0.00671  -0.0278   0.0245   0.9960 135.8576 294.9417
   8.839   1.1401   0.01747   0.00685  -0.0278   0.0241   0.9963 135.9858 295.1441
   8.925   1.1479   0.01762   0.00694  -0.0278   0.0238   0.9965 136.0755 295.3099
   9.010   1.1558   0.01778   0.00703  -0.0279   0.0235   0.9967 136.1724 295.5001
   9.095   1.1635   0.01794   0.00713  -0.0280   0.0232   0.9970 136.2750 295.7201
   9.181   1.1710   0.01811   0.00723  -0.0280   0.0229   0.9973 136.3777 295.9726
   9.266   1.1788   0.01829   0.00733  -0.0281   0.0226   0.9975 136.4800 296.1879
   9.352   1.1865   0.01847   0.00743  -0.0282   0.0223   0.9977 136.5796 296.4410
   9.437   1.1940   0.01867   0.00754  -0.0283   0.0220   0.9980 136.6754 296.7331
   9.523   1.2011   0.01889   0.00767  -0.0284   0.0217   0.9983 136.7691 297.0551
   9.608   1.2079   0.01913   0.00781  -0.0284   0.0214   0.9986 136.8651 297.4189
   9.694   1.2133   0.01944   0.00798  -0.0283   0.0211   0.9990 136.9627 297.9690
   9.779   1.2190   0.01972   0.00815  -0.0283   0.0209   0.9994 137.0325 298.6642
   9.864   1.2252   0.01996   0.00830  -0.0283   0.0207   0.9997 137.0915 299.5122
   9.950   1.2298   0.02020   0.00845  -0.0280   0.0205   1.0000 137.1501 301.0000
  10.035   1.2272   0.02043   0.00856  -0.0263   0.0204   1.0000 137.1825 301.0000
  10.121   1.2257   0.02066   0.00867  -0.0248   0.0203   1.0000 137.2208 301.0000
  10.206   1.2247   0.02088   0.00878  -0.0233   0.0202   1.0000 137.2616 301.0000
  10.291   1.2241   0.02110   0.00889  -0.0220   0.0201   1.0000 137.3042 301.0000
  10.377   1.2236   0.02132   0.00900  -0.0206   0.0200   1.0000 137.3474 301.0000
  10.462   1.2232   0.02154   0.00910  -0.0193   0.0198   1.0000 137.3907 301.0000
  10.548   1.2229   0.02176   0.00920  -0.0179   0.0197   1.0000 137.4338 301.0000
  10.633   1.2226   0.02198   0.00930  -0.0166   0.0196   1.0000 137.4765 301.0000
  10.719   1.2224   0.02219   0.00940  -0.0153   0.0195   1.0000 137.5188 301.0000
  10.804   1.2224   0.02241   0.00950  -0.0141   0.0193   1.0000 137.5613 301.0000
  10.889   1.2226   0.02264   0.00961  -0.0129   0.0192   1.0000 137.6045 301.0000
  10.975   1.2233   0.02287   0.00972  -0.0117   0.0191   1.0000 137.6490 301.0000
  11.060   1.2244   0.02312   0.00984  -0.0108   0.0190   1.0000 137.6949 301.0000
  11.146   1.2261   0.02338   0.00997  -0.0099   0.0188   1.0000 137.7429 301.0000
  11.231   1.2281   0.02366   0.01011  -0.0091   0.0187   1.0000 137.7933 301.0000
  11.317   1.2304   0.02397   0.01028  -0.0084   0.0185   1.0000 137.8477 301.0000
  11.402   1.2329   0.02431   0.01047  -0.0078   0.0183   1.0000 137.9070 301.0000
  11.487   1.2353   0.02469   0.01069  -0.0073   0.0182   1.0000 137.9716 301.0000
  11.573   1.2390   0.02502   0.01088  -0.0069   0.0180   1.0000 138.0188 301.0000
  11.658   1.2438   0.02528   0.01103  -0.0066   0.0179   1.0000 138.0559 301.0000
  11.744   1.2486   0.02554   0.01119  -0.0064   0.0178   1.0000 138.0984 301.0000
  11.829   1.2534   0.02582   0.01136  -0.0061   0.0177   1.0000 138.1456 301.0000
  11.915   1.2581   0.02611   0.01153  -0.0059   0.0175   1.0000 138.1965 301.0000
  12.000   1.2628   0.02641   0.01171  -0.0057   0.0174   1.0000 138.2501 301.0000
