  
       XFOIL         Version 6.99
  
 Calculated polar for: Repaneled_Airfoil                               
  
 1 1 Reynolds number fixed          Mach number fixed         
  
 xtrf =   1.000 (top)        1.000 (bottom)  
 Mach =   0.000     Re =     1.000 e 6     Ncrit =   9.000  9.000
  
   alpha    CL        CD       CDp       CM     Top_Xtr  Bot_Xtr  Top_Itr  Bot_Itr
  ------ -------- --------- --------- -------- -------- -------- -------- --------
  -5.000  -0.3521   0.00831   0.00145  -0.0294   0.9285   0.0904  26.8156 180.0895
  -4.915  -0.3431   0.00824   0.00140  -0.0292   0.9216   0.0941  28.0705 180.7002
  -4.829  -0.3342   0.00818   0.00136  -0.0290   0.9139   0.0979  29.4078 181.3056
  -4.744  -0.3253   0.00813   0.00132  -0.0288   0.9059   0.1020  30.7435 181.9639
  -4.658  -0.3164   0.00807   0.00127  -0.0286   0.8979   0.1063  32.0276 182.6376
  -4.573  -0.3075   0.00802   0.00123  -0.0284   0.8896   0.1109  33.3035 183.3357
  -4.487  -0.2985   0.00798   0.00120  -0.0283   0.8819   0.1158  34.4641 184.0879
  -4.402  -0.2895   0.00793   0.00116  -0.0281   0.8747   0.1212  35.5132 184.8788
  -4.317  -0.2805   0.00787   0.00112  -0.0280   0.8682   0.1268  36.4429 185.6930
  -4.231  -0.2715   0.00782   0.00109  -0.0278   0.8623   0.1332  37.2702 186.5980
  -4.146  -0.2624   0.00776   0.00106  -0.0277   0.8568   0.1402  38.0195 187.5683
  -4.060  -0.2532   0.00770   0.00103  -0.0276   0.8514   0.1476  38.7481 188.5810
  -3.975  -0.2441   0.00764   0.00099  -0.0275   0.8464   0.1557  39.4183 189.6672
  -3.889  -0.2350   0.00758   0.00096  -0.0274   0.8417   0.1644  40.0393 190.7931
  -3.804  -0.2258   0.00751   0.00093  -0.0273   0.8369   0.1738  40.6635 191.9961
  -3.719  -0.2167   0.00743   0.00089  -0.0272   0.8325   0.1851  41.2277 193.4022
  -3.633  -0.2077   0.00734   0.00085  -0.0271   0.8281   0.1989  41.7864 195.0791
  -3.548  -0.1989   0.00721   0.00080  -0.0270   0.8240   0.2181  42.3056 197.3347
  -3.462  -0.1906   0.00702   0.00073  -0.0268   0.8199   0.2499  42.8083 200.9194
  -3.377  -0.1825   0.00678   0.00068  -0.0266   0.8161   0.2969  43.2780 205.9634
  -3.292  -0.1740   0.00661   0.00064  -0.0265   0.8123   0.3325  43.7444 209.6304
  -3.206  -0.1651   0.00650   0.00062  -0.0264   0.8089   0.3577  44.1682 212.1653
  -3.121  -0.1560   0.00642   0.00061  -0.0263   0.8052   0.3778  44.6037 214.1508
  -3.035  -0.1468   0.00636   0.00060  -0.0262   0.8020   0.3942  44.9899 215.7609
  -2.950  -0.1374   0.00630   0.00059  -0.0262   0.7986   0.4080  45.3981 217.1059
  -2.864  -0.1281   0.00626   0.00059  -0.0261   0.7954   0.4200  45.7793 218.2689
  -2.779  -0.1187   0.00622   0.00058  -0.0260   0.7925   0.4309  46.1266 219.3259
  -2.693  -0.1092   0.00618   0.00058  -0.0260   0.7893   0.4407  46.4969 220.2746
  -2.608  -0.0997   0.00615   0.00057  -0.0260   0.7863   0.4499  46.8430 221.1524
  -2.523  -0.0901   0.00613   0.00057  -0.0259   0.7834   0.4587  47.1788 222.0001
  -2.437  -0.0806   0.00610   0.00057  -0.0259   0.7803   0.4672  47.5390 222.8144
  -2.352  -0.0711   0.00608   0.00056  -0.0258   0.7773   0.4750  47.8824 223.5622
  -2.266  -0.0615   0.00605   0.00056  -0.0258   0.7742   0.4823  48.2386 224.2604
  -2.181  -0.0519   0.00604   0.00056  -0.0258   0.7709   0.4896  48.6174 224.9581
  -2.095  -0.0425   0.00602   0.00055  -0.0257   0.7678   0.4968  48.9669 225.6439
  -2.010  -0.0328   0.00599   0.00055  -0.0257   0.7644   0.5038  49.3531 226.3168
  -1.839  -0.0137   0.00596   0.00055  -0.0256   0.7578   0.5183  50.0898 227.6964
  -1.754  -0.0041   0.00594   0.00055  -0.0256   0.7542   0.5252  50.4903 228.3658
  -1.583   0.0150   0.00591   0.00054  -0.0255   0.7472   0.5387  51.2657 229.6519
  -1.498   0.0246   0.00589   0.00054  -0.0255   0.7432   0.5450  51.6964 230.2627
  -1.412   0.0342   0.00588   0.00054  -0.0255   0.7395   0.5515  52.1059 230.8836
  -1.327   0.0438   0.00586   0.00053  -0.0254   0.7352   0.5574  52.5696 231.4487
  -1.156   0.0630   0.00584   0.00053  -0.0254   0.7268   0.5692  53.4773 232.5861
  -1.070   0.0725   0.00583   0.00052  -0.0253   0.7223   0.5752  53.9500 233.1646
  -0.985   0.0821   0.00581   0.00052  -0.0253   0.7173   0.5816  54.4791 233.7811
  -0.899   0.0916   0.00580   0.00051  -0.0253   0.7123   0.5879  55.0154 234.4001
  -0.814   0.1012   0.00579   0.00051  -0.0252   0.7063   0.5948  55.6390 235.0646
  -0.729   0.1106   0.00578   0.00050  -0.0252   0.7002   0.6015  56.2784 235.7234
  -0.558   0.1295   0.00576   0.00049  -0.0250   0.6857   0.6151  57.7835 237.0525
  -0.472   0.1388   0.00576   0.00048  -0.0250   0.6774   0.6224  58.6313 237.7665
  -0.387   0.1481   0.00575   0.00047  -0.0249   0.6680   0.6297  59.5804 238.4872
  -0.301   0.1573   0.00575   0.00047  -0.0248   0.6575   0.6376  60.6454 239.2717
  -0.216   0.1664   0.00576   0.00046  -0.0246   0.6455   0.6463  61.8431 240.1451
  -0.131   0.1753   0.00577   0.00045  -0.0245   0.6318   0.6558  63.2090 241.0920
  -0.045   0.1841   0.00579   0.00045  -0.0243   0.6162   0.6665  64.7471 242.1692
   0.040   0.1926   0.00581   0.00044  -0.0241   0.5988   0.6788  66.4484 243.4219
   0.126   0.2010   0.00583   0.00044  -0.0238   0.5802   0.6934  68.2439 244.9277
   0.211   0.2092   0.00584   0.00045  -0.0236   0.5611   0.7110  70.0855 246.7659
   0.296   0.2172   0.00585   0.00047  -0.0232   0.5419   0.7337  71.9279 249.1911
   0.382   0.2250   0.00585   0.00050  -0.0228   0.5231   0.7624  73.7281 252.3443
   0.467   0.2328   0.00587   0.00054  -0.0225   0.5047   0.7893  75.4904 255.4308
   0.553   0.2410   0.00592   0.00057  -0.0221   0.4870   0.8091  77.1743 257.7905
   0.638   0.2494   0.00598   0.00060  -0.0219   0.4702   0.8240  78.7819 259.6364
   0.724   0.2579   0.00605   0.00063  -0.0216   0.4546   0.8363  80.2724 261.1970
   0.809   0.2665   0.00611   0.00066  -0.0214   0.4396   0.8470  81.7114 262.5972
   0.894   0.2751   0.00618   0.00069  -0.0212   0.4256   0.8566  83.0625 263.8850
   0.980   0.2838   0.00625   0.00071  -0.0210   0.4124   0.8651  84.3346 265.0676
   1.065   0.2924   0.00631   0.00074  -0.0208   0.4006   0.8730  85.4854 266.1772
   1.151   0.3012   0.00637   0.00077  -0.0206   0.3900   0.8802  86.5202 267.2338
   1.236   0.3100   0.00643   0.00079  -0.0204   0.3809   0.8870  87.4095 268.2448
   1.322   0.3188   0.00648   0.00082  -0.0202   0.3730   0.8934  88.1910 269.2206
   1.407   0.3277   0.00653   0.00084  -0.0200   0.3656   0.8995  88.9183 270.1694
   1.492   0.3366   0.00657   0.00086  -0.0198   0.3590   0.9053  89.5764 271.1058
   1.578   0.3454   0.00662   0.00088  -0.0196   0.3529   0.9108  90.1836 272.0242
   1.663   0.3542   0.00667   0.00091  -0.0194   0.3469   0.9160  90.7851 272.9057
   1.749   0.3630   0.00671   0.00093  -0.0192   0.3415   0.9209  91.3292 273.7589
   1.834   0.3719   0.00676   0.00095  -0.0190   0.3362   0.9256  91.8656 274.5956
   1.920   0.3807   0.00681   0.00097  -0.0188   0.3314   0.9300  92.3451 275.4206
   2.005   0.3896   0.00685   0.00099  -0.0186   0.3269   0.9343  92.8059 276.2362
   2.091   0.3985   0.00690   0.00101  -0.0184   0.3230   0.9385  93.1973 277.0532
   2.176   0.4075   0.00694   0.00103  -0.0182   0.3191   0.9423  93.5963 277.8125
   2.261   0.4164   0.00699   0.00105  -0.0181   0.3155   0.9458  93.9686 278.5566
   2.347   0.4255   0.00702   0.00107  -0.0179   0.3119   0.9493  94.3374 279.3119
   2.432   0.4345   0.00707   0.00109  -0.0178   0.3082   0.9529  94.7184 280.0973
   2.518   0.4436   0.00712   0.00111  -0.0176   0.3050   0.9562  95.0552 280.8514
   2.603   0.4530   0.00715   0.00113  -0.0176   0.3018   0.9592  95.3844 281.5738
   2.688   0.4624   0.00720   0.00115  -0.0175   0.2987   0.9623  95.7124 282.3269
   2.774   0.4718   0.00725   0.00117  -0.0174   0.2956   0.9654  96.0269 283.1188
   2.859   0.4816   0.00729   0.00118  -0.0174   0.2925   0.9682  96.3524 283.8743
   2.945   0.4916   0.00733   0.00120  -0.0175   0.2893   0.9707  96.6869 284.5672
   3.030   0.5016   0.00739   0.00122  -0.0176   0.2864   0.9733  97.0010 285.3121
   3.116   0.5120   0.00743   0.00124  -0.0177   0.2834   0.9758  97.3154 286.0743
   3.201   0.5227   0.00747   0.00126  -0.0180   0.2802   0.9778  97.6513 286.7010
   3.286   0.5334   0.00753   0.00128  -0.0182   0.2773   0.9797  97.9667 287.3486
   3.372   0.5442   0.00757   0.00130  -0.0185   0.2744   0.9817  98.2752 288.0335
   3.457   0.5555   0.00762   0.00132  -0.0189   0.2712   0.9830  98.6161 288.5071
   3.543   0.5665   0.00768   0.00134  -0.0192   0.2682   0.9846  98.9331 289.1080
   3.628   0.5781   0.00772   0.00136  -0.0197   0.2654   0.9857  99.2425 289.5572
   3.714   0.5894   0.00777   0.00137  -0.0201   0.2622   0.9870  99.5845 290.0943
   3.799   0.6012   0.00783   0.00139  -0.0206   0.2591   0.9880  99.9267 290.5105
   3.884   0.6130   0.00788   0.00141  -0.0211   0.2560   0.9891 100.2649 291.0167
   3.970   0.6253   0.00793   0.00143  -0.0217   0.2525   0.9897 100.6401 291.3093
   4.141   0.6495   0.00804   0.00147  -0.0229   0.2461   0.9914 101.3532 292.1347
   4.226   0.6617   0.00809   0.00149  -0.0235   0.2424   0.9921 101.7630 292.5059
   4.312   0.6736   0.00815   0.00151  -0.0240   0.2389   0.9930 102.1530 293.0179
   4.397   0.6859   0.00820   0.00153  -0.0247   0.2350   0.9936 102.5896 293.3746
   4.568   0.7100   0.00832   0.00157  -0.0258   0.2279   0.9951 103.3978 294.2797
   4.653   0.7219   0.00838   0.00159  -0.0264   0.2237   0.9957 103.8686 294.7705
   4.739   0.7338   0.00844   0.00161  -0.0269   0.2195   0.9964 104.3506 295.2414
   4.824   0.7456   0.00851   0.00163  -0.0275   0.2148   0.9970 104.8929 295.7664
   4.910   0.7574   0.00857   0.00165  -0.0280   0.2101   0.9976 105.4516 296.2973
   4.995   0.7692   0.00865   0.00167  -0.0286   0.2049   0.9982 106.0564 296.9285
   5.080   0.7811   0.00872   0.00169  -0.0291   0.1992   0.9987 106.7355 297.6131
   5.166   0.7929   0.00880   0.00172  -0.0297   0.1936   0.9993 107.4057 298.4676
   5.251   0.8047   0.00889   0.00175  -0.0303   0.1881   0.9998 108.0758 299.8001
   5.337   0.8136   0.00896   0.00177  -0.0302   0.1830   1.0000 108.7045 301.0000
   5.422   0.8209   0.00903   0.00179  -0.0298   0.1783   1.0000 109.2888 301.0000
   5.593   0.8353   0.00920   0.00185  -0.0289   0.1676   1.0000 110.6377 301.0000
   5.678   0.8424   0.00929   0.00188  -0.0285   0.1623   1.0000 111.3129 301.0000
   5.764   0.8494   0.00939   0.00191  -0.0280   0.1566   1.0000 112.0589 301.0000
   5.849   0.8566   0.00949   0.00195  -0.0276   0.1504   1.0000 112.8842 301.0000
   5.935   0.8637   0.00960   0.00199  -0.0271   0.1445   1.0000 113.6821 301.0000
   6.020   0.8708   0.00970   0.00203  -0.0267   0.1388   1.0000 114.4609 301.0000
   6.106   0.8779   0.00981   0.00208  -0.0263   0.1330   1.0000 115.2677 301.0000
   6.191   0.8851   0.00993   0.00213  -0.0259   0.1271   1.0000 116.1005 301.0000
   6.276   0.8922   0.01005   0.00218  -0.0254   0.1217   1.0000 116.8827 301.0000
   6.362   0.8995   0.01016   0.00223  -0.0250   0.1164   1.0000 117.6610 301.0000
   6.447   0.9069   0.01028   0.00228  -0.0247   0.1111   1.0000 118.4551 301.0000
   6.533   0.9141   0.01041   0.00234  -0.0243   0.1060   1.0000 119.2437 301.0000
   6.704   0.9289   0.01065   0.00245  -0.0235   0.0969   1.0000 120.6762 301.0000
   6.789   0.9364   0.01077   0.00251  -0.0232   0.0928   1.0000 121.3541 301.0000
   6.874   0.9439   0.01090   0.00257  -0.0228   0.0886   1.0000 122.0420 301.0000
   6.960   0.9515   0.01101   0.00263  -0.0225   0.0849   1.0000 122.6801 301.0000
   7.045   0.9593   0.01114   0.00269  -0.0222   0.0815   1.0000 123.2699 301.0000
   7.131   0.9670   0.01126   0.00276  -0.0219   0.0779   1.0000 123.9028 301.0000
   7.216   0.9749   0.01138   0.00281  -0.0216   0.0746   1.0000 124.4882 301.0000
   7.301   0.9826   0.01151   0.00288  -0.0214   0.0715   1.0000 125.0598 301.0000
   7.387   0.9906   0.01163   0.00295  -0.0211   0.0686   1.0000 125.5996 301.0000
   7.472   0.9984   0.01177   0.00302  -0.0208   0.0660   1.0000 126.1005 301.0000
   7.558   1.0065   0.01188   0.00308  -0.0206   0.0633   1.0000 126.6252 301.0000
   7.643   1.0144   0.01201   0.00315  -0.0204   0.0608   1.0000 127.1172 301.0000
   7.729   1.0225   0.01213   0.00321  -0.0202   0.0583   1.0000 127.6158 301.0000
   7.814   1.0304   0.01228   0.00329  -0.0199   0.0561   1.0000 128.0779 301.0000
   7.899   1.0385   0.01239   0.00336  -0.0197   0.0540   1.0000 128.5193 301.0000
   7.985   1.0463   0.01254   0.00344  -0.0195   0.0520   1.0000 128.9432 301.0000
   8.070   1.0546   0.01265   0.00350  -0.0193   0.0502   1.0000 129.3347 301.0000
   8.156   1.0626   0.01278   0.00357  -0.0191   0.0483   1.0000 129.7467 301.0000
   8.241   1.0706   0.01292   0.00365  -0.0189   0.0467   1.0000 130.1069 301.0000
   8.327   1.0788   0.01304   0.00371  -0.0187   0.0452   1.0000 130.4565 301.0000
   8.412   1.0868   0.01318   0.00379  -0.0185   0.0437   1.0000 130.7952 301.0000
   8.498   1.0947   0.01332   0.00387  -0.0183   0.0424   1.0000 131.0980 301.0000
   8.583   1.1029   0.01344   0.00394  -0.0181   0.0412   1.0000 131.3881 301.0000
   8.668   1.1109   0.01357   0.00402  -0.0179   0.0400   1.0000 131.6766 301.0000
   8.754   1.1186   0.01374   0.00411  -0.0176   0.0389   1.0000 131.9566 301.0000
   8.839   1.1269   0.01385   0.00418  -0.0175   0.0379   1.0000 132.1994 301.0000
   8.925   1.1350   0.01397   0.00425  -0.0173   0.0369   1.0000 132.4656 301.0000
   9.010   1.1429   0.01411   0.00433  -0.0171   0.0359   1.0000 132.7233 301.0000
   9.095   1.1506   0.01427   0.00442  -0.0168   0.0349   1.0000 132.9625 301.0000
   9.181   1.1587   0.01439   0.00449  -0.0166   0.0342   1.0000 133.1640 301.0000
   9.266   1.1668   0.01452   0.00457  -0.0165   0.0334   1.0000 133.3746 301.0000
   9.352   1.1747   0.01466   0.00465  -0.0162   0.0326   1.0000 133.5823 301.0000
   9.437   1.1824   0.01481   0.00474  -0.0160   0.0319   1.0000 133.7796 301.0000
   9.523   1.1899   0.01499   0.00485  -0.0158   0.0311   1.0000 133.9780 301.0000
   9.608   1.1979   0.01512   0.00492  -0.0156   0.0306   1.0000 134.1334 301.0000
   9.694   1.2058   0.01525   0.00500  -0.0154   0.0300   1.0000 134.3003 301.0000
   9.779   1.2136   0.01540   0.00509  -0.0151   0.0294   1.0000 134.4712 301.0000
   9.864   1.2212   0.01555   0.00518  -0.0149   0.0288   1.0000 134.6362 301.0000
   9.950   1.2286   0.01573   0.00529  -0.0146   0.0282   1.0000 134.7971 301.0000
  10.035   1.2356   0.01593   0.00541  -0.0143   0.0276   1.0000 134.9676 301.0000
  10.121   1.2434   0.01607   0.00550  -0.0141   0.0272   1.0000 135.0954 301.0000
  10.206   1.2512   0.01620   0.00558  -0.0139   0.0267   1.0000 135.2309 301.0000
  10.291   1.2589   0.01634   0.00566  -0.0137   0.0263   1.0000 135.3749 301.0000
  10.377   1.2664   0.01649   0.00575  -0.0134   0.0258   1.0000 135.5193 301.0000
  10.462   1.2738   0.01666   0.00585  -0.0132   0.0253   1.0000 135.6572 301.0000
  10.548   1.2809   0.01684   0.00596  -0.0129   0.0249   1.0000 135.7890 301.0000
  10.633   1.2878   0.01705   0.00608  -0.0125   0.0244   1.0000 135.9225 301.0000
  10.719   1.2947   0.01724   0.00620  -0.0122   0.0241   1.0000 136.0405 301.0000
  10.804   1.3022   0.01739   0.00629  -0.0120   0.0237   1.0000 136.1401 301.0000
  10.889   1.3095   0.01754   0.00638  -0.0117   0.0234   1.0000 136.2471 301.0000
  10.975   1.3167   0.01770   0.00648  -0.0114   0.0231   1.0000 136.3558 301.0000
  11.060   1.3238   0.01787   0.00658  -0.0111   0.0227   1.0000 136.4638 301.0000
  11.146   1.3307   0.01805   0.00669  -0.0108   0.0224   1.0000 136.5687 301.0000
  11.231   1.3374   0.01824   0.00680  -0.0105   0.0221   1.0000 136.6703 301.0000
  11.317   1.3439   0.01844   0.00692  -0.0101   0.0218   1.0000 136.7709 301.0000
  11.402   1.3500   0.01868   0.00707  -0.0097   0.0215   1.0000 136.8760 301.0000
  11.487   1.3555   0.01896   0.00724  -0.0092   0.0211   1.0000 136.9893 301.0000
  11.573   1.3622   0.01913   0.00735  -0.0089   0.0209   1.0000 137.0567 301.0000
  11.658   1.3689   0.01931   0.00746  -0.0085   0.0207   1.0000 137.1281 301.0000
  11.744   1.3754   0.01949   0.00757  -0.0082   0.0205   1.0000 137.2057 301.0000
  11.829   1.3817   0.01968   0.00768  -0.0078   0.0202   1.0000 137.2861 301.0000
  11.915   1.3879   0.01987   0.00780  -0.0074   0.0200   1.0000 137.3672 301.0000
  12.000   1.3940   0.02007   0.00793  -0.0070   0.0198   1.0000 137.4470 301.0000
