  
       XFOIL         Version 6.99
  
 Calculated polar for: Repaneled_Airfoil                               
  
 1 1 Reynolds number fixed          Mach number fixed         
  
 xtrf =   1.000 (top)        1.000 (bottom)  
 Mach =   0.000     Re =     1.000 e 6     Ncrit =   9.000  9.000
  
   alpha    CL        CD       CDp       CM     Top_Xtr  Bot_Xtr  Top_Itr  Bot_Itr
  ------ -------- --------- --------- -------- -------- -------- -------- --------
  -5.000  -0.5890   0.01203   0.00232   0.0675   0.2630   0.0565  99.4308 173.7270
  -4.915  -0.5796   0.01200   0.00229   0.0676   0.2624   0.0576  99.4960 173.9672
  -4.829  -0.5705   0.01193   0.00227   0.0677   0.2618   0.0589  99.5579 174.2209
  -4.744  -0.5612   0.01188   0.00225   0.0678   0.2613   0.0601  99.6171 174.4715
  -4.658  -0.5519   0.01184   0.00223   0.0679   0.2608   0.0614  99.6730 174.7315
  -4.573  -0.5425   0.01182   0.00221   0.0680   0.2603   0.0627  99.7259 174.9791
  -4.487  -0.5333   0.01176   0.00218   0.0681   0.2598   0.0640  99.7779 175.2435
  -4.402  -0.5240   0.01172   0.00217   0.0682   0.2593   0.0654  99.8318 175.5168
  -4.317  -0.5146   0.01170   0.00215   0.0682   0.2587   0.0669  99.8904 175.8031
  -4.231  -0.5053   0.01169   0.00213   0.0683   0.2581   0.0683  99.9569 176.0737
  -4.146  -0.4961   0.01165   0.00212   0.0684   0.2576   0.0698 100.0167 176.3571
  -4.060  -0.4867   0.01161   0.00211   0.0685   0.2572   0.0714 100.0595 176.6552
  -3.975  -0.4772   0.01158   0.00210   0.0686   0.2567   0.0730 100.1063 176.9473
  -3.889  -0.4678   0.01153   0.00209   0.0687   0.2563   0.0746 100.1567 177.2356
  -3.804  -0.4584   0.01149   0.00208   0.0687   0.2558   0.0762 100.2116 177.5347
  -3.719  -0.4490   0.01146   0.00207   0.0688   0.2552   0.0779 100.2698 177.8411
  -3.633  -0.4395   0.01142   0.00205   0.0689   0.2547   0.0795 100.3298 178.1245
  -3.548  -0.4301   0.01138   0.00204   0.0689   0.2541   0.0812 100.3908 178.4209
  -3.462  -0.4207   0.01135   0.00203   0.0690   0.2536   0.0831 100.4521 178.7461
  -3.377  -0.4112   0.01133   0.00202   0.0690   0.2530   0.0849 100.5126 179.0626
  -3.292  -0.4018   0.01128   0.00201   0.0691   0.2525   0.0868 100.5713 179.3866
  -3.206  -0.3923   0.01125   0.00200   0.0692   0.2520   0.0889 100.6281 179.7315
  -3.121  -0.3828   0.01123   0.00199   0.0692   0.2515   0.0908 100.6824 180.0561
  -3.035  -0.3734   0.01119   0.00198   0.0693   0.2510   0.0928 100.7338 180.3838
  -2.950  -0.3639   0.01117   0.00197   0.0693   0.2505   0.0949 100.7838 180.7390
  -2.864  -0.3544   0.01115   0.00195   0.0694   0.2501   0.0970 100.8342 181.0788
  -2.779  -0.3450   0.01113   0.00194   0.0694   0.2496   0.0992 100.8871 181.4257
  -2.693  -0.3356   0.01113   0.00194   0.0695   0.2491   0.1015 100.9461 181.7981
  -2.608  -0.3262   0.01113   0.00193   0.0696   0.2485   0.1037 101.0075 182.1454
  -2.523  -0.3167   0.01109   0.00193   0.0696   0.2481   0.1061 101.0466 182.5142
  -2.437  -0.3071   0.01106   0.00193   0.0696   0.2477   0.1086 101.0914 182.8962
  -2.352  -0.2977   0.01102   0.00192   0.0697   0.2473   0.1109 101.1405 183.2590
  -2.266  -0.2881   0.01099   0.00192   0.0697   0.2468   0.1137 101.1931 183.6721
  -2.181  -0.2786   0.01097   0.00191   0.0698   0.2463   0.1165 101.2478 184.0886
  -2.095  -0.2691   0.01093   0.00191   0.0698   0.2458   0.1195 101.3037 184.5411
  -1.925  -0.2501   0.01087   0.00190   0.0699   0.2448   0.1268 101.4166 185.6026
  -1.839  -0.2407   0.01083   0.00189   0.0700   0.2443   0.1312 101.4726 186.2299
  -1.754  -0.2312   0.01079   0.00187   0.0700   0.2438   0.1366 101.5295 186.9915
  -1.583  -0.2129   0.01061   0.00182   0.0702   0.2428   0.1640 101.6416 190.6421
  -1.498  -0.2111   0.00951   0.00146   0.0713   0.2424   0.3814 101.6776 214.3553
  -1.412  -0.2030   0.00935   0.00144   0.0715   0.2419   0.4131 101.7304 217.4608
  -1.327  -0.1941   0.00928   0.00144   0.0717   0.2415   0.4304 101.7848 219.1332
  -1.241  -0.1849   0.00923   0.00144   0.0718   0.2409   0.4424 101.8410 220.2933
  -1.156  -0.1756   0.00922   0.00145   0.0718   0.2404   0.4510 101.9019 221.1196
  -1.070  -0.1664   0.00923   0.00146   0.0719   0.2398   0.4585 101.9709 221.8443
  -0.985  -0.1570   0.00923   0.00148   0.0720   0.2393   0.4648 102.0258 222.4441
  -0.899  -0.1473   0.00922   0.00149   0.0720   0.2389   0.4704 102.0711 222.9875
  -0.814  -0.1379   0.00920   0.00151   0.0720   0.2384   0.4753 102.1197 223.4546
  -0.729  -0.1282   0.00920   0.00153   0.0721   0.2380   0.4799 102.1725 223.8984
  -0.643  -0.1187   0.00919   0.00155   0.0721   0.2375   0.4837 102.2280 224.2610
  -0.558  -0.1091   0.00918   0.00156   0.0721   0.2370   0.4873 102.2862 224.6075
  -0.472  -0.0994   0.00919   0.00158   0.0721   0.2364   0.4905 102.3464 224.9118
  -0.387  -0.0898   0.00919   0.00159   0.0721   0.2359   0.4932 102.4071 225.1720
  -0.301  -0.0802   0.00919   0.00160   0.0721   0.2353   0.4959 102.4671 225.4237
  -0.216  -0.0705   0.00919   0.00161   0.0721   0.2348   0.4983 102.5254 225.6619
  -0.131  -0.0608   0.00920   0.00161   0.0721   0.2343   0.5007 102.5809 225.8887
  -0.045  -0.0511   0.00921   0.00162   0.0721   0.2338   0.5030 102.6341 226.1088
   0.040  -0.0416   0.00920   0.00163   0.0722   0.2334   0.5056 102.6857 226.3527
   0.126  -0.0319   0.00921   0.00164   0.0722   0.2329   0.5082 102.7365 226.6028
   0.211  -0.0222   0.00923   0.00165   0.0722   0.2325   0.5106 102.7871 226.8320
   0.296  -0.0125   0.00925   0.00166   0.0721   0.2320   0.5126 102.8389 227.0313
   0.382  -0.0031   0.00926   0.00167   0.0722   0.2315   0.5146 102.8947 227.2164
   0.467   0.0064   0.00930   0.00168   0.0722   0.2309   0.5165 102.9595 227.3984
   0.553   0.0160   0.00933   0.00170   0.0722   0.2304   0.5184 103.0188 227.5808
   0.638   0.0257   0.00933   0.00172   0.0722   0.2300   0.5202 103.0649 227.7558
   0.724   0.0355   0.00934   0.00173   0.0721   0.2295   0.5218 103.1180 227.9138
   0.809   0.0453   0.00934   0.00174   0.0721   0.2290   0.5234 103.1760 228.0640
   0.894   0.0549   0.00934   0.00176   0.0721   0.2285   0.5252 103.2369 228.2375
   0.980   0.0645   0.00934   0.00178   0.0721   0.2279   0.5273 103.2989 228.4319
   1.065   0.0742   0.00935   0.00179   0.0721   0.2274   0.5293 103.3602 228.6317
   1.151   0.0839   0.00937   0.00180   0.0721   0.2269   0.5313 103.4197 228.8173
   1.236   0.0937   0.00938   0.00181   0.0721   0.2264   0.5329 103.4780 228.9786
   1.322   0.1033   0.00938   0.00182   0.0721   0.2259   0.5345 103.5346 229.1230
   1.407   0.1129   0.00939   0.00183   0.0721   0.2254   0.5360 103.5899 229.2718
   1.492   0.1226   0.00940   0.00184   0.0720   0.2249   0.5376 103.6439 229.4268
   1.578   0.1322   0.00941   0.00185   0.0720   0.2244   0.5393 103.6964 229.5883
   1.663   0.1419   0.00942   0.00186   0.0720   0.2240   0.5410 103.7479 229.7522
   1.749   0.1517   0.00945   0.00186   0.0720   0.2235   0.5427 103.8005 229.9161
   1.834   0.1613   0.00946   0.00187   0.0719   0.2230   0.5444 103.8563 230.0819
   1.920   0.1708   0.00949   0.00188   0.0720   0.2225   0.5462 103.9182 230.2515
   2.005   0.1802   0.00953   0.00189   0.0720   0.2218   0.5480 103.9914 230.4223
   2.091   0.1899   0.00954   0.00191   0.0719   0.2214   0.5498 104.0423 230.5981
   2.176   0.1997   0.00955   0.00193   0.0719   0.2209   0.5516 104.0981 230.7671
   2.261   0.2095   0.00957   0.00194   0.0718   0.2204   0.5532 104.1585 230.9295
   2.347   0.2191   0.00957   0.00196   0.0718   0.2198   0.5549 104.2212 231.0879
   2.432   0.2287   0.00958   0.00198   0.0718   0.2193   0.5565 104.2839 231.2455
   2.518   0.2383   0.00958   0.00199   0.0718   0.2188   0.5581 104.3451 231.3999
   2.603   0.2480   0.00960   0.00200   0.0718   0.2182   0.5597 104.4057 231.5475
   2.688   0.2577   0.00961   0.00202   0.0717   0.2177   0.5611 104.4656 231.6873
   2.774   0.2674   0.00963   0.00202   0.0717   0.2172   0.5624 104.5246 231.8148
   2.859   0.2771   0.00965   0.00203   0.0716   0.2167   0.5637 104.5823 231.9360
   2.945   0.2868   0.00966   0.00204   0.0716   0.2162   0.5649 104.6387 232.0505
   3.030   0.2964   0.00967   0.00204   0.0716   0.2157   0.5660 104.6946 232.1642
   3.116   0.3060   0.00968   0.00205   0.0716   0.2152   0.5673 104.7509 232.2826
   3.201   0.3156   0.00970   0.00205   0.0715   0.2147   0.5686 104.8089 232.4068
   3.286   0.3251   0.00973   0.00206   0.0715   0.2142   0.5699 104.8704 232.5366
   3.372   0.3346   0.00978   0.00207   0.0715   0.2136   0.5713 104.9375 232.6704
   3.457   0.3441   0.00984   0.00210   0.0715   0.2130   0.5727 105.0079 232.8053
   3.543   0.3539   0.00985   0.00212   0.0714   0.2126   0.5740 105.0567 232.9382
   3.628   0.3636   0.00986   0.00214   0.0714   0.2121   0.5753 105.1162 233.0626
   3.714   0.3732   0.00986   0.00215   0.0713   0.2115   0.5766 105.1846 233.1874
   3.799   0.3828   0.00987   0.00217   0.0713   0.2108   0.5780 105.2589 233.3188
   3.884   0.3925   0.00988   0.00218   0.0713   0.2102   0.5794 105.3356 233.4576
   3.970   0.4021   0.00989   0.00219   0.0712   0.2095   0.5809 105.4113 233.6029
   4.055   0.4118   0.00990   0.00220   0.0712   0.2089   0.5824 105.4829 233.7516
   4.141   0.4215   0.00993   0.00220   0.0711   0.2084   0.5840 105.5496 233.8993
   4.226   0.4312   0.00994   0.00221   0.0711   0.2078   0.5854 105.6183 234.0391
   4.312   0.4408   0.00994   0.00220   0.0710   0.2071   0.5868 105.6986 234.1764
   4.397   0.4504   0.00994   0.00219   0.0710   0.2063   0.5883 105.7936 234.3222
   4.482   0.4599   0.00996   0.00216   0.0709   0.2053   0.5899 105.9107 234.4763
   4.568   0.4694   0.00999   0.00216   0.0709   0.2042   0.5916 106.0372 234.6390
   4.653   0.4793   0.00997   0.00216   0.0708   0.2032   0.5933 106.1530 234.8085
   4.739   0.4891   0.00996   0.00215   0.0707   0.2022   0.5950 106.2779 234.9763
   4.824   0.4988   0.00996   0.00215   0.0707   0.2012   0.5967 106.3929 235.1346
   4.910   0.5084   0.00996   0.00215   0.0706   0.2003   0.5984 106.4964 235.3074
   4.995   0.5181   0.00996   0.00214   0.0706   0.1995   0.6003 106.5990 235.4958
   5.080   0.5277   0.00996   0.00213   0.0705   0.1986   0.6024 106.7007 235.6932
   5.166   0.5374   0.00998   0.00212   0.0704   0.1977   0.6044 106.8066 235.8928
   5.251   0.5469   0.01000   0.00210   0.0704   0.1967   0.6063 106.9255 236.0826
   5.337   0.5564   0.01001   0.00210   0.0703   0.1956   0.6084 107.0529 236.2820
   5.422   0.5661   0.01000   0.00210   0.0703   0.1944   0.6106 107.1972 236.4997
   5.508   0.5759   0.00999   0.00209   0.0702   0.1930   0.6129 107.3668 236.7297
   5.593   0.5856   0.00999   0.00207   0.0701   0.1916   0.6153 107.5374 236.9606
   5.678   0.5952   0.00999   0.00205   0.0700   0.1903   0.6175 107.6937 237.1816
   5.764   0.6046   0.01000   0.00204   0.0700   0.1892   0.6200 107.8340 237.4227
   5.849   0.6140   0.01004   0.00203   0.0700   0.1880   0.6226 107.9684 237.6795
   5.935   0.6236   0.01006   0.00205   0.0699   0.1871   0.6253 108.0824 237.9446
   6.020   0.6332   0.01006   0.00206   0.0698   0.1860   0.6279 108.2149 238.2030
   6.106   0.6427   0.01006   0.00206   0.0698   0.1848   0.6309 108.3650 238.4973
   6.191   0.6523   0.01008   0.00207   0.0697   0.1835   0.6340 108.5244 238.8134
   6.276   0.6617   0.01009   0.00206   0.0697   0.1822   0.6372 108.6862 239.1275
   6.362   0.6711   0.01011   0.00205   0.0696   0.1809   0.6407 108.8491 239.4799
   6.447   0.6804   0.01014   0.00205   0.0696   0.1795   0.6447 109.0163 239.8729
   6.533   0.6899   0.01013   0.00206   0.0695   0.1781   0.6491 109.1899 240.3113
   6.618   0.6992   0.01012   0.00206   0.0695   0.1765   0.6545 109.3920 240.8544
   6.704   0.7085   0.01011   0.00205   0.0695   0.1748   0.6615 109.5996 241.5590
   6.789   0.7174   0.01009   0.00204   0.0695   0.1733   0.6717 109.7976 242.5901
   6.874   0.7239   0.00983   0.00196   0.0700   0.1719   0.7272 109.9667 248.3825
   6.960   0.7277   0.00954   0.00206   0.0712   0.1708   0.8664 110.1113 265.1547
   7.045   0.7367   0.00957   0.00210   0.0713   0.1691   0.8770 110.3255 266.6644
   7.131   0.7459   0.00962   0.00212   0.0714   0.1672   0.8838 110.5637 267.6766
   7.216   0.7549   0.00968   0.00215   0.0714   0.1653   0.8891 110.8106 268.4703
   7.301   0.7641   0.00974   0.00217   0.0714   0.1634   0.8935 111.0487 269.1534
   7.387   0.7733   0.00979   0.00221   0.0714   0.1614   0.8973 111.3112 269.7528
   7.472   0.7825   0.00985   0.00224   0.0714   0.1589   0.9005 111.6259 270.2600
   7.558   0.7916   0.00994   0.00227   0.0714   0.1564   0.9035 111.9543 270.7406
   7.643   0.8008   0.00999   0.00230   0.0714   0.1537   0.9062 112.3135 271.1705
   7.729   0.8099   0.01007   0.00234   0.0714   0.1501   0.9087 112.7942 271.5896
   7.814   0.8190   0.01017   0.00238   0.0714   0.1463   0.9112 113.2950 272.0163
   7.899   0.8277   0.01029   0.00243   0.0714   0.1421   0.9132 113.8740 272.3499
   7.985   0.8367   0.01040   0.00248   0.0714   0.1372   0.9153 114.5423 272.7116
   8.070   0.8454   0.01055   0.00256   0.0714   0.1307   0.9173 115.4546 273.0612
   8.156   0.8536   0.01076   0.00267   0.0715   0.1225   0.9190 116.6252 273.3563
   8.241   0.8618   0.01101   0.00281   0.0716   0.1138   0.9209 117.9034 273.6870
   8.327   0.8698   0.01132   0.00299   0.0716   0.1036   0.9228 119.4735 274.0230
   8.412   0.8774   0.01163   0.00320   0.0717   0.0944   0.9242 120.9451 274.2844
   8.498   0.8851   0.01196   0.00341   0.0718   0.0854   0.9258 122.4478 274.5800
   8.583   0.8930   0.01226   0.00362   0.0718   0.0781   0.9276 123.7251 274.8938
   8.754   0.9086   0.01284   0.00402   0.0720   0.0663   0.9303 125.8994 275.4041
   8.839   0.9167   0.01308   0.00419   0.0720   0.0616   0.9318 126.8035 275.6827
   8.925   0.9249   0.01333   0.00435   0.0720   0.0575   0.9333 127.6348 275.9729
   9.010   0.9329   0.01357   0.00452   0.0721   0.0542   0.9344 128.3293 276.1903
   9.095   0.9408   0.01381   0.00470   0.0722   0.0513   0.9356 128.9452 276.4231
   9.181   0.9491   0.01400   0.00483   0.0722   0.0487   0.9369 129.5186 276.6729
   9.266   0.9572   0.01424   0.00499   0.0723   0.0462   0.9382 130.0733 276.9356
   9.352   0.9654   0.01444   0.00512   0.0723   0.0441   0.9393 130.5678 277.1430
   9.437   0.9732   0.01467   0.00529   0.0724   0.0422   0.9403 131.0130 277.3524
   9.523   0.9814   0.01486   0.00542   0.0725   0.0406   0.9414 131.3860 277.5784
   9.608   0.9895   0.01508   0.00557   0.0725   0.0392   0.9426 131.7491 277.8186
   9.694   0.9976   0.01530   0.00572   0.0725   0.0378   0.9437 132.0718 278.0466
   9.779   1.0058   0.01547   0.00584   0.0726   0.0366   0.9445 132.3797 278.2235
   9.864   1.0137   0.01567   0.00598   0.0726   0.0354   0.9455 132.6957 278.4235
   9.950   1.0215   0.01592   0.00615   0.0727   0.0343   0.9465 132.9881 278.6485
  10.035   1.0298   0.01609   0.00627   0.0727   0.0333   0.9477 133.2345 278.8900
  10.121   1.0378   0.01629   0.00641   0.0728   0.0324   0.9487 133.4881 279.1022
  10.206   1.0454   0.01652   0.00657   0.0729   0.0315   0.9495 133.7288 279.2958
  10.291   1.0529   0.01678   0.00675   0.0729   0.0306   0.9505 133.9644 279.5156
  10.377   1.0609   0.01697   0.00688   0.0730   0.0300   0.9516 134.1522 279.7407
  10.462   1.0690   0.01717   0.00702   0.0730   0.0293   0.9526 134.3483 279.9732
  10.548   1.0766   0.01739   0.00718   0.0731   0.0286   0.9534 134.5413 280.1536
  10.633   1.0840   0.01765   0.00735   0.0732   0.0280   0.9542 134.7273 280.3486
  10.719   1.0912   0.01794   0.00756   0.0733   0.0273   0.9552 134.9126 280.5744
  10.804   1.0988   0.01818   0.00773   0.0733   0.0268   0.9563 135.0718 280.8176
  10.889   1.1066   0.01836   0.00785   0.0733   0.0263   0.9573 135.2214 281.0572
  10.975   1.1140   0.01857   0.00800   0.0735   0.0258   0.9582 135.3816 281.2645
  11.060   1.1213   0.01881   0.00817   0.0736   0.0252   0.9592 135.5406 281.5197
  11.146   1.1284   0.01907   0.00835   0.0737   0.0247   0.9604 135.6924 281.8132
  11.231   1.1353   0.01937   0.00855   0.0738   0.0243   0.9616 135.8369 282.1011
  11.317   1.1416   0.01971   0.00880   0.0740   0.0238   0.9627 135.9832 282.3717
  11.402   1.1487   0.01994   0.00896   0.0741   0.0235   0.9638 136.0910 282.6691
  11.487   1.1560   0.02017   0.00912   0.0742   0.0231   0.9651 136.2046 282.9890
  11.573   1.1629   0.02042   0.00929   0.0743   0.0227   0.9660 136.3210 283.2355
  11.658   1.1697   0.02070   0.00949   0.0744   0.0224   0.9671 136.4378 283.5168
  11.744   1.1764   0.02099   0.00969   0.0745   0.0220   0.9683 136.5535 283.8383
  11.829   1.1828   0.02131   0.00992   0.0747   0.0217   0.9693 136.6674 284.1367
  11.915   1.1890   0.02167   0.01017   0.0748   0.0213   0.9704 136.7821 284.4317
  12.000   1.1948   0.02209   0.01047   0.0749   0.0209   0.9716 136.9045 284.7840
