  
       XFOIL         Version 6.99
  
 Calculated polar for: Repaneled_Airfoil                               
  
 1 1 Reynolds number fixed          Mach number fixed         
  
 xtrf =   1.000 (top)        1.000 (bottom)  
 Mach =   0.000     Re =     1.000 e 6     Ncrit =   9.000  9.000
  
   alpha    CL        CD       CDp       CM     Top_Xtr  Bot_Xtr  Top_Itr  Bot_Itr
  ------ -------- --------- --------- -------- -------- -------- -------- --------
  -5.000  -0.3814   0.01000   0.00214  -0.0552   0.8620   0.0262  37.4197 166.6439
  -4.915  -0.3722   0.00995   0.00210  -0.0551   0.8581   0.0268  37.9548 166.8298
  -4.829  -0.3628   0.00991   0.00206  -0.0551   0.8541   0.0273  38.4991 166.9819
  -4.658  -0.3445   0.00977   0.00196  -0.0549   0.8466   0.0285  39.5132 167.3355
  -4.487  -0.3259   0.00966   0.00187  -0.0548   0.8392   0.0299  40.4788 167.7118
  -4.402  -0.3166   0.00961   0.00183  -0.0548   0.8357   0.0305  40.9342 167.8926
  -4.317  -0.3072   0.00956   0.00179  -0.0547   0.8321   0.0311  41.4049 168.0684
  -4.231  -0.2980   0.00950   0.00174  -0.0547   0.8285   0.0319  41.8544 168.2748
  -4.146  -0.2886   0.00944   0.00171  -0.0546   0.8250   0.0327  42.2990 168.4902
  -4.060  -0.2793   0.00939   0.00167  -0.0546   0.8214   0.0335  42.7547 168.7076
  -3.975  -0.2699   0.00935   0.00164  -0.0545   0.8179   0.0343  43.1927 168.9123
  -3.889  -0.2605   0.00930   0.00160  -0.0545   0.8141   0.0351  43.6618 169.1126
  -3.804  -0.2512   0.00925   0.00157  -0.0544   0.8105   0.0359  44.0959 169.3345
  -3.719  -0.2418   0.00920   0.00153  -0.0544   0.8066   0.0369  44.5711 169.5686
  -3.633  -0.2324   0.00917   0.00150  -0.0543   0.8031   0.0378  45.0025 169.7946
  -3.548  -0.2229   0.00913   0.00147  -0.0543   0.7991   0.0385  45.4768 169.9914
  -3.462  -0.2136   0.00908   0.00144  -0.0542   0.7954   0.0395  45.9171 170.2149
  -3.377  -0.2042   0.00903   0.00141  -0.0542   0.7916   0.0404  46.3684 170.4490
  -3.292  -0.1948   0.00899   0.00138  -0.0541   0.7878   0.0414  46.8114 170.6887
  -3.206  -0.1853   0.00895   0.00135  -0.0541   0.7841   0.0424  47.2386 170.9209
  -3.121  -0.1759   0.00891   0.00132  -0.0541   0.7803   0.0436  47.6834 171.2071
  -3.035  -0.1665   0.00887   0.00131  -0.0540   0.7767   0.0452  48.0953 171.5706
  -2.950  -0.1569   0.00885   0.00130  -0.0540   0.7727   0.0469  48.5559 171.9564
  -2.779  -0.1379   0.00880   0.00128  -0.0540   0.7646   0.0504  49.4719 172.7420
  -2.693  -0.1285   0.00879   0.00127  -0.0539   0.7605   0.0521  49.9388 173.0913
  -2.608  -0.1190   0.00875   0.00126  -0.0539   0.7560   0.0537  50.4363 173.4306
  -2.523  -0.1095   0.00874   0.00126  -0.0539   0.7516   0.0552  50.9246 173.7449
  -2.437  -0.0999   0.00872   0.00123  -0.0539   0.7471   0.0563  51.4294 173.9940
  -2.352  -0.0906   0.00867   0.00121  -0.0538   0.7426   0.0575  51.9234 174.2298
  -2.266  -0.0811   0.00863   0.00119  -0.0538   0.7378   0.0586  52.4406 174.4443
  -2.181  -0.0716   0.00861   0.00116  -0.0537   0.7331   0.0597  52.9532 174.6694
  -2.095  -0.0620   0.00859   0.00114  -0.0537   0.7280   0.0608  53.4987 174.8946
  -2.010  -0.0526   0.00856   0.00111  -0.0536   0.7231   0.0619  54.0274 175.1132
  -1.925  -0.0431   0.00852   0.00109  -0.0536   0.7177   0.0631  54.6013 175.3429
  -1.839  -0.0337   0.00851   0.00108  -0.0535   0.7124   0.0643  55.1618 175.5811
  -1.754  -0.0242   0.00849   0.00105  -0.0535   0.7066   0.0655  55.7795 175.8245
  -1.668  -0.0146   0.00848   0.00103  -0.0534   0.7006   0.0667  56.4055 176.0490
  -1.583  -0.0053   0.00844   0.00101  -0.0534   0.6943   0.0680  57.0613 176.2887
  -1.498   0.0041   0.00843   0.00099  -0.0533   0.6875   0.0692  57.7674 176.5257
  -1.412   0.0136   0.00842   0.00098  -0.0533   0.6805   0.0705  58.4869 176.7688
  -1.327   0.0231   0.00843   0.00095  -0.0532   0.6731   0.0717  59.2451 176.9901
  -1.241   0.0323   0.00840   0.00094  -0.0531   0.6652   0.0731  60.0524 177.2339
  -1.156   0.0417   0.00840   0.00093  -0.0531   0.6568   0.0744  60.8975 177.4787
  -1.070   0.0511   0.00841   0.00091  -0.0530   0.6480   0.0758  61.7777 177.7361
  -0.985   0.0605   0.00842   0.00090  -0.0529   0.6388   0.0771  62.7034 177.9735
  -0.899   0.0697   0.00841   0.00088  -0.0528   0.6292   0.0785  63.6492 178.2105
  -0.814   0.0790   0.00842   0.00088  -0.0528   0.6194   0.0798  64.6244 178.4413
  -0.729   0.0883   0.00844   0.00087  -0.0527   0.6089   0.0812  65.6493 178.6848
  -0.643   0.0976   0.00847   0.00085  -0.0526   0.5983   0.0826  66.6952 178.9243
  -0.558   0.1067   0.00848   0.00084  -0.0525   0.5872   0.0839  67.7707 179.1602
  -0.472   0.1159   0.00851   0.00084  -0.0524   0.5755   0.0853  68.9025 179.3976
  -0.387   0.1251   0.00854   0.00084  -0.0523   0.5637   0.0868  70.0452 179.6462
  -0.301   0.1344   0.00858   0.00084  -0.0522   0.5513   0.0883  71.2402 179.8929
  -0.216   0.1435   0.00861   0.00083  -0.0521   0.5387   0.0896  72.4552 180.1242
  -0.131   0.1526   0.00864   0.00084  -0.0521   0.5260   0.0910  73.6709 180.3546
  -0.045   0.1618   0.00869   0.00084  -0.0520   0.5132   0.0925  74.8930 180.5908
   0.040   0.1710   0.00874   0.00084  -0.0519   0.5009   0.0939  76.0766 180.8265
   0.126   0.1802   0.00878   0.00083  -0.0518   0.4884   0.0952  77.2724 181.0451
   0.211   0.1893   0.00881   0.00084  -0.0517   0.4762   0.0967  78.4316 181.2774
   0.296   0.1985   0.00886   0.00085  -0.0516   0.4646   0.0982  79.5465 181.5145
   0.382   0.2077   0.00891   0.00085  -0.0515   0.4534   0.0997  80.6267 181.7647
   0.467   0.2170   0.00896   0.00086  -0.0515   0.4428   0.1012  81.6433 181.9991
   0.553   0.2262   0.00898   0.00087  -0.0514   0.4327   0.1028  82.6154 182.2506
   0.638   0.2354   0.00902   0.00088  -0.0513   0.4230   0.1044  83.5525 182.5002
   0.724   0.2447   0.00907   0.00088  -0.0513   0.4140   0.1061  84.4278 182.7581
   0.809   0.2541   0.00911   0.00089  -0.0512   0.4055   0.1076  85.2522 182.9914
   0.894   0.2633   0.00914   0.00090  -0.0511   0.3973   0.1092  86.0536 183.2329
   0.980   0.2726   0.00917   0.00091  -0.0511   0.3896   0.1107  86.8113 183.4714
   1.065   0.2820   0.00920   0.00091  -0.0510   0.3826   0.1123  87.5000 183.7148
   1.151   0.2913   0.00925   0.00091  -0.0509   0.3761   0.1139  88.1389 183.9441
   1.236   0.3007   0.00926   0.00092  -0.0509   0.3698   0.1154  88.7640 184.1682
   1.322   0.3101   0.00928   0.00093  -0.0508   0.3643   0.1169  89.3067 184.3940
   1.407   0.3195   0.00931   0.00094  -0.0508   0.3591   0.1185  89.8243 184.6356
   1.492   0.3289   0.00934   0.00094  -0.0507   0.3546   0.1202  90.2705 184.8845
   1.578   0.3384   0.00936   0.00095  -0.0507   0.3503   0.1219  90.7061 185.1264
   1.663   0.3477   0.00938   0.00096  -0.0506   0.3465   0.1236  91.0820 185.3770
   1.749   0.3573   0.00940   0.00097  -0.0506   0.3429   0.1255  91.4491 185.6499
   1.834   0.3668   0.00943   0.00097  -0.0505   0.3395   0.1274  91.7945 185.9251
   1.920   0.3762   0.00944   0.00098  -0.0505   0.3366   0.1293  92.0898 186.1924
   2.005   0.3857   0.00945   0.00099  -0.0505   0.3338   0.1312  92.3750 186.4651
   2.091   0.3952   0.00947   0.00099  -0.0504   0.3310   0.1332  92.6504 186.7392
   2.176   0.4046   0.00950   0.00100  -0.0504   0.3286   0.1349  92.9018 186.9855
   2.261   0.4141   0.00950   0.00101  -0.0503   0.3264   0.1368  93.1242 187.2454
   2.347   0.4236   0.00951   0.00101  -0.0503   0.3242   0.1388  93.3458 187.5160
   2.432   0.4332   0.00952   0.00102  -0.0503   0.3221   0.1408  93.5632 187.7997
   2.518   0.4426   0.00954   0.00102  -0.0502   0.3201   0.1428  93.7674 188.0734
   2.603   0.4520   0.00956   0.00103  -0.0501   0.3182   0.1450  93.9573 188.3667
   2.688   0.4616   0.00957   0.00104  -0.0501   0.3166   0.1474  94.1297 188.6982
   2.774   0.4712   0.00958   0.00104  -0.0501   0.3148   0.1500  94.3094 189.0370
   2.859   0.4806   0.00958   0.00105  -0.0500   0.3131   0.1528  94.4897 189.4116
   2.945   0.4901   0.00959   0.00106  -0.0500   0.3114   0.1559  94.6650 189.8293
   3.030   0.4995   0.00961   0.00107  -0.0499   0.3098   0.1593  94.8320 190.2657
   3.116   0.5089   0.00963   0.00108  -0.0499   0.3082   0.1633  94.9918 190.7888
   3.201   0.5184   0.00962   0.00109  -0.0498   0.3069   0.1682  95.1315 191.4077
   3.286   0.5279   0.00962   0.00109  -0.0498   0.3055   0.1744  95.2771 192.2037
   3.372   0.5374   0.00960   0.00110  -0.0497   0.3041   0.1842  95.4221 193.4127
   3.457   0.5464   0.00948   0.00109  -0.0497   0.3028   0.2323  95.5589 199.0839
   3.543   0.5523   0.00876   0.00111  -0.0494   0.3017   0.5244  95.6710 228.3744
   3.628   0.5602   0.00854   0.00113  -0.0492   0.3005   0.6122  95.7900 236.8538
   3.714   0.5677   0.00830   0.00115  -0.0488   0.2995   0.6988  95.9036 245.5656
   3.799   0.5728   0.00797   0.00120  -0.0478   0.2985   0.8218  96.0066 259.4242
   3.884   0.5785   0.00784   0.00126  -0.0468   0.2976   0.8874  96.0939 268.3566
   3.970   0.5855   0.00781   0.00130  -0.0460   0.2967   0.9191  96.1911 273.4787
   4.055   0.5932   0.00781   0.00133  -0.0454   0.2957   0.9406  96.2950 277.5215
   4.141   0.6021   0.00783   0.00136  -0.0451   0.2947   0.9565  96.4051 280.9628
   4.226   0.6127   0.00787   0.00139  -0.0452   0.2936   0.9678  96.5201 283.7935
   4.312   0.6246   0.00792   0.00142  -0.0456   0.2925   0.9759  96.6382 286.1400
   4.397   0.6373   0.00797   0.00145  -0.0462   0.2913   0.9820  96.7585 288.1650
   4.482   0.6503   0.00804   0.00148  -0.0469   0.2901   0.9865  96.8822 289.9155
   4.568   0.6638   0.00811   0.00151  -0.0478   0.2889   0.9896  97.0113 291.2873
   4.653   0.6787   0.00815   0.00154  -0.0489   0.2879   0.9918  97.1195 292.3589
   4.739   0.6936   0.00819   0.00156  -0.0500   0.2868   0.9935  97.2360 293.3284
   4.824   0.7082   0.00823   0.00159  -0.0511   0.2857   0.9950  97.3531 294.2571
   4.910   0.7227   0.00828   0.00161  -0.0521   0.2846   0.9963  97.4699 295.1986
   4.995   0.7372   0.00833   0.00163  -0.0532   0.2835   0.9974  97.5829 296.1815
   5.080   0.7515   0.00838   0.00166  -0.0542   0.2825   0.9984  97.6899 297.2634
   5.166   0.7658   0.00844   0.00168  -0.0552   0.2815   0.9994  97.7943 298.6724
   5.251   0.7783   0.00850   0.00171  -0.0558   0.2806   1.0000  97.8947 301.0000
   5.337   0.7862   0.00856   0.00173  -0.0555   0.2797   1.0000  97.9850 301.0000
   5.422   0.7943   0.00859   0.00174  -0.0551   0.2791   1.0000  98.0550 301.0000
   5.508   0.8026   0.00861   0.00175  -0.0548   0.2784   1.0000  98.1263 301.0000
   5.593   0.8108   0.00864   0.00176  -0.0545   0.2777   1.0000  98.2019 301.0000
   5.678   0.8190   0.00868   0.00177  -0.0542   0.2770   1.0000  98.2807 301.0000
   5.764   0.8273   0.00871   0.00179  -0.0539   0.2762   1.0000  98.3619 301.0000
   5.849   0.8355   0.00874   0.00180  -0.0536   0.2754   1.0000  98.4442 301.0000
   5.935   0.8436   0.00878   0.00181  -0.0532   0.2747   1.0000  98.5275 301.0000
   6.020   0.8518   0.00882   0.00183  -0.0529   0.2739   1.0000  98.6107 301.0000
   6.106   0.8599   0.00887   0.00184  -0.0526   0.2731   1.0000  98.6931 301.0000
   6.191   0.8680   0.00892   0.00186  -0.0522   0.2724   1.0000  98.7756 301.0000
   6.276   0.8760   0.00898   0.00188  -0.0519   0.2716   1.0000  98.8597 301.0000
   6.362   0.8839   0.00905   0.00190  -0.0515   0.2707   1.0000  98.9483 301.0000
   6.447   0.8920   0.00910   0.00192  -0.0512   0.2700   1.0000  99.0270 301.0000
   6.533   0.9005   0.00913   0.00194  -0.0509   0.2694   1.0000  99.0921 301.0000
   6.618   0.9090   0.00916   0.00195  -0.0507   0.2688   1.0000  99.1616 301.0000
   6.704   0.9174   0.00920   0.00197  -0.0504   0.2681   1.0000  99.2329 301.0000
   6.789   0.9259   0.00924   0.00199  -0.0501   0.2674   1.0000  99.3053 301.0000
   6.874   0.9343   0.00928   0.00201  -0.0498   0.2668   1.0000  99.3783 301.0000
   6.960   0.9427   0.00932   0.00202  -0.0496   0.2661   1.0000  99.4533 301.0000
   7.045   0.9512   0.00936   0.00204  -0.0493   0.2653   1.0000  99.5383 301.0000
   7.131   0.9596   0.00941   0.00205  -0.0490   0.2644   1.0000  99.6321 301.0000
   7.216   0.9680   0.00946   0.00207  -0.0488   0.2635   1.0000  99.7311 301.0000
   7.301   0.9763   0.00952   0.00208  -0.0485   0.2626   1.0000  99.8352 301.0000
   7.387   0.9844   0.00960   0.00211  -0.0482   0.2615   1.0000  99.9523 301.0000
   7.472   0.9930   0.00965   0.00212  -0.0479   0.2605   1.0000 100.0591 301.0000
   7.558   1.0019   0.00966   0.00213  -0.0478   0.2595   1.0000 100.1659 301.0000
   7.643   1.0108   0.00969   0.00214  -0.0476   0.2585   1.0000 100.2782 301.0000
   7.729   1.0197   0.00972   0.00215  -0.0474   0.2575   1.0000 100.3902 301.0000
   7.814   1.0285   0.00976   0.00216  -0.0472   0.2565   1.0000 100.5013 301.0000
   7.899   1.0373   0.00980   0.00217  -0.0470   0.2554   1.0000 100.6157 301.0000
   7.985   1.0460   0.00985   0.00218  -0.0468   0.2543   1.0000 100.7339 301.0000
   8.070   1.0546   0.00991   0.00219  -0.0466   0.2532   1.0000 100.8620 301.0000
   8.156   1.0629   0.01000   0.00221  -0.0464   0.2519   1.0000 101.0036 301.0000
   8.241   1.0722   0.01001   0.00222  -0.0462   0.2508   1.0000 101.1235 301.0000
   8.327   1.0813   0.01004   0.00222  -0.0461   0.2496   1.0000 101.2609 301.0000
   8.412   1.0904   0.01006   0.00223  -0.0460   0.2482   1.0000 101.4125 301.0000
   8.498   1.0993   0.01010   0.00223  -0.0458   0.2467   1.0000 101.5750 301.0000
   8.583   1.1081   0.01015   0.00223  -0.0456   0.2453   1.0000 101.7308 301.0000
   8.668   1.1167   0.01022   0.00225  -0.0454   0.2440   1.0000 101.8734 301.0000
   8.754   1.1252   0.01030   0.00227  -0.0452   0.2428   1.0000 102.0108 301.0000
   8.839   1.1344   0.01032   0.00228  -0.0451   0.2417   1.0000 102.1326 301.0000
   8.925   1.1435   0.01035   0.00228  -0.0450   0.2405   1.0000 102.2678 301.0000
   9.010   1.1526   0.01039   0.00229  -0.0448   0.2390   1.0000 102.4345 301.0000
   9.095   1.1615   0.01043   0.00229  -0.0447   0.2373   1.0000 102.6324 301.0000
   9.181   1.1702   0.01050   0.00230  -0.0445   0.2353   1.0000 102.8503 301.0000
   9.266   1.1789   0.01056   0.00230  -0.0443   0.2333   1.0000 103.0800 301.0000
   9.352   1.1882   0.01057   0.00230  -0.0442   0.2309   1.0000 103.3534 301.0000
   9.437   1.1972   0.01062   0.00229  -0.0441   0.2282   1.0000 103.6527 301.0000
   9.523   1.2058   0.01069   0.00230  -0.0439   0.2257   1.0000 103.9454 301.0000
   9.608   1.2148   0.01073   0.00230  -0.0438   0.2231   1.0000 104.2455 301.0000
   9.694   1.2236   0.01079   0.00230  -0.0436   0.2200   1.0000 104.5967 301.0000
   9.779   1.2320   0.01088   0.00231  -0.0434   0.2170   1.0000 104.9426 301.0000
   9.864   1.2409   0.01093   0.00233  -0.0433   0.2142   1.0000 105.2778 301.0000
   9.950   1.2495   0.01100   0.00234  -0.0431   0.2108   1.0000 105.6643 301.0000
  10.035   1.2578   0.01110   0.00236  -0.0428   0.2078   1.0000 106.0228 301.0000
  10.121   1.2666   0.01116   0.00238  -0.0427   0.2041   1.0000 106.4552 301.0000
  10.291   1.2831   0.01136   0.00242  -0.0422   0.1950   1.0000 107.5495 301.0000
  10.377   1.2911   0.01149   0.00246  -0.0419   0.1903   1.0000 108.1225 301.0000
  10.462   1.2990   0.01161   0.00250  -0.0417   0.1845   1.0000 108.8256 301.0000
  10.548   1.3067   0.01176   0.00256  -0.0414   0.1775   1.0000 109.7034 301.0000
  10.633   1.3136   0.01197   0.00264  -0.0410   0.1687   1.0000 110.8079 301.0000
  10.719   1.3202   0.01221   0.00274  -0.0405   0.1587   1.0000 112.0975 301.0000
  10.804   1.3254   0.01256   0.00292  -0.0399   0.1439   1.0000 114.0735 301.0000
  10.889   1.3287   0.01308   0.00320  -0.0390   0.1220   1.0000 117.1629 301.0000
  10.975   1.3276   0.01398   0.00374  -0.0375   0.0878   1.0000 122.5012 301.0000
  11.146   1.3363   0.01481   0.00424  -0.0360   0.0639   1.0000 126.8108 301.0000
  11.231   1.3418   0.01512   0.00441  -0.0354   0.0570   1.0000 128.1889 301.0000
  11.317   1.3480   0.01537   0.00456  -0.0349   0.0524   1.0000 129.1736 301.0000
  11.402   1.3543   0.01560   0.00468  -0.0345   0.0482   1.0000 130.0700 301.0000
  11.487   1.3608   0.01581   0.00480  -0.0340   0.0449   1.0000 130.8191 301.0000
  11.573   1.3675   0.01601   0.00491  -0.0336   0.0424   1.0000 131.4028 301.0000
  11.658   1.3740   0.01622   0.00502  -0.0331   0.0402   1.0000 131.9256 301.0000
  11.744   1.3809   0.01639   0.00511  -0.0327   0.0384   1.0000 132.3928 301.0000
  11.829   1.3875   0.01658   0.00521  -0.0322   0.0364   1.0000 132.8839 301.0000
  11.915   1.3941   0.01676   0.00530  -0.0318   0.0348   1.0000 133.2936 301.0000
  12.000   1.4007   0.01694   0.00540  -0.0314   0.0333   1.0000 133.6990 301.0000
