  
       XFOIL         Version 6.99
  
 Calculated polar for: Repaneled_Airfoil                               
  
 1 1 Reynolds number fixed          Mach number fixed         
  
 xtrf =   1.000 (top)        1.000 (bottom)  
 Mach =   0.000     Re =     1.000 e 6     Ncrit =   9.000  9.000
  
   alpha    CL        CD       CDp       CM     Top_Xtr  Bot_Xtr  Top_Itr  Bot_Itr
  ------ -------- --------- --------- -------- -------- -------- -------- --------
  -5.000  -0.4273   0.00994   0.00209  -0.0763   0.8475   0.0376  39.4381 169.8178
  -4.915  -0.4274   0.01045   0.00206  -0.0742   0.6888   0.0380  57.6641 169.9343
  -4.829  -0.4198   0.01053   0.00206  -0.0739   0.6681   0.0388  59.7818 170.1404
  -4.744  -0.4111   0.01051   0.00204  -0.0738   0.6584   0.0399  60.7617 170.3852
  -4.658  -0.4022   0.01049   0.00201  -0.0738   0.6515   0.0409  61.4597 170.6462
  -4.573  -0.3931   0.01047   0.00199  -0.0737   0.6459   0.0420  62.0194 170.9039
  -4.487  -0.3839   0.01042   0.00196  -0.0737   0.6411   0.0431  62.5020 171.1683
  -4.402  -0.3749   0.01038   0.00193  -0.0737   0.6368   0.0445  62.9255 171.4797
  -4.317  -0.3655   0.01034   0.00190  -0.0737   0.6329   0.0461  63.3098 171.8467
  -4.231  -0.3563   0.01029   0.00187  -0.0737   0.6292   0.0478  63.6818 172.2365
  -4.146  -0.3471   0.01025   0.00184  -0.0737   0.6259   0.0499  64.0062 172.7045
  -4.060  -0.3377   0.01020   0.00181  -0.0737   0.6227   0.0520  64.3213 173.1610
  -3.975  -0.3285   0.01014   0.00179  -0.0737   0.6196   0.0544  64.6252 173.6688
  -3.889  -0.3192   0.01010   0.00176  -0.0737   0.6168   0.0568  64.9040 174.1673
  -3.804  -0.3099   0.01005   0.00173  -0.0738   0.6141   0.0595  65.1732 174.7084
  -3.719  -0.3005   0.00999   0.00171  -0.0738   0.6112   0.0620  65.4549 175.2109
  -3.633  -0.2911   0.00994   0.00168  -0.0738   0.6084   0.0647  65.7264 175.7380
  -3.548  -0.2819   0.00990   0.00165  -0.0738   0.6059   0.0671  65.9753 176.2051
  -3.462  -0.2724   0.00984   0.00162  -0.0738   0.6032   0.0696  66.2355 176.6789
  -3.377  -0.2630   0.00979   0.00159  -0.0738   0.6004   0.0718  66.5090 177.0941
  -3.292  -0.2537   0.00974   0.00156  -0.0738   0.5977   0.0743  66.7747 177.5393
  -3.206  -0.2443   0.00971   0.00153  -0.0738   0.5952   0.0768  67.0198 177.9920
  -3.121  -0.2349   0.00964   0.00149  -0.0738   0.5926   0.0795  67.2781 178.4751
  -3.035  -0.2254   0.00959   0.00147  -0.0738   0.5899   0.0824  67.5385 178.9851
  -2.950  -0.2161   0.00953   0.00143  -0.0738   0.5874   0.0855  67.7816 179.5134
  -2.864  -0.2067   0.00950   0.00140  -0.0738   0.5852   0.0888  67.9956 180.0699
  -2.779  -0.1972   0.00943   0.00137  -0.0738   0.5829   0.0926  68.2139 180.6943
  -2.693  -0.1878   0.00937   0.00134  -0.0739   0.5807   0.0964  68.4291 181.3245
  -2.523  -0.1690   0.00926   0.00128  -0.0739   0.5766   0.1054  68.8241 182.7470
  -2.437  -0.1597   0.00920   0.00124  -0.0738   0.5749   0.1106  68.9958 183.5426
  -2.352  -0.1503   0.00912   0.00121  -0.0739   0.5730   0.1166  69.1804 184.4414
  -2.266  -0.1409   0.00903   0.00116  -0.0739   0.5710   0.1239  69.3694 185.5156
  -2.181  -0.1317   0.00892   0.00111  -0.0739   0.5691   0.1337  69.5559 186.9160
  -2.095  -0.1229   0.00875   0.00102  -0.0738   0.5672   0.1515  69.7343 189.3357
  -2.010  -0.1149   0.00844   0.00098  -0.0738   0.5655   0.2104  69.9019 196.6464
  -1.925  -0.1053   0.00842   0.00102  -0.0738   0.5636   0.2255  70.0819 198.3965
  -1.839  -0.0955   0.00842   0.00104  -0.0738   0.5615   0.2327  70.2873 199.2068
  -1.754  -0.0857   0.00843   0.00106  -0.0739   0.5593   0.2379  70.4979 199.7952
  -1.668  -0.0760   0.00844   0.00107  -0.0739   0.5572   0.2417  70.6996 200.2151
  -1.583  -0.0663   0.00845   0.00109  -0.0739   0.5553   0.2453  70.8820 200.6114
  -1.498  -0.0566   0.00848   0.00110  -0.0739   0.5536   0.2483  71.0470 200.9487
  -1.412  -0.0468   0.00848   0.00112  -0.0739   0.5518   0.2507  71.2200 201.2121
  -1.327  -0.0370   0.00848   0.00113  -0.0740   0.5500   0.2531  71.3942 201.4666
  -1.241  -0.0272   0.00850   0.00115  -0.0740   0.5483   0.2554  71.5613 201.7180
  -1.156  -0.0173   0.00853   0.00115  -0.0740   0.5467   0.2574  71.7179 201.9439
  -1.070  -0.0077   0.00853   0.00116  -0.0740   0.5451   0.2592  71.8678 202.1374
  -0.985   0.0019   0.00854   0.00118  -0.0740   0.5436   0.2609  72.0133 202.3181
  -0.899   0.0118   0.00855   0.00119  -0.0740   0.5419   0.2625  72.1778 202.4909
  -0.814   0.0216   0.00856   0.00120  -0.0741   0.5401   0.2641  72.3529 202.6602
  -0.729   0.0314   0.00857   0.00120  -0.0741   0.5382   0.2655  72.5276 202.8162
  -0.643   0.0412   0.00859   0.00120  -0.0741   0.5365   0.2667  72.6929 202.9500
  -0.558   0.0508   0.00859   0.00120  -0.0741   0.5349   0.2679  72.8452 203.0762
  -0.472   0.0603   0.00859   0.00120  -0.0741   0.5334   0.2691  72.9890 203.2037
  -0.387   0.0701   0.00858   0.00121  -0.0741   0.5318   0.2702  73.1443 203.3262
  -0.301   0.0799   0.00858   0.00121  -0.0741   0.5301   0.2714  73.3064 203.4483
  -0.216   0.0897   0.00859   0.00121  -0.0741   0.5285   0.2725  73.4666 203.5700
  -0.131   0.0994   0.00859   0.00121  -0.0741   0.5269   0.2737  73.6184 203.6942
  -0.045   0.1091   0.00861   0.00121  -0.0741   0.5254   0.2748  73.7624 203.8113
   0.040   0.1188   0.00863   0.00121  -0.0741   0.5239   0.2757  73.8987 203.9111
   0.126   0.1285   0.00865   0.00120  -0.0741   0.5226   0.2765  74.0309 203.9915
   0.211   0.1382   0.00861   0.00120  -0.0741   0.5211   0.2775  74.1748 204.1005
   0.296   0.1479   0.00859   0.00120  -0.0741   0.5195   0.2785  74.3253 204.2013
   0.382   0.1576   0.00858   0.00119  -0.0741   0.5179   0.2792  74.4765 204.2850
   0.467   0.1672   0.00858   0.00119  -0.0741   0.5164   0.2800  74.6243 204.3685
   0.553   0.1769   0.00858   0.00119  -0.0741   0.5149   0.2809  74.7662 204.4576
   0.638   0.1865   0.00859   0.00118  -0.0741   0.5135   0.2818  74.9011 204.5509
   0.724   0.1962   0.00860   0.00118  -0.0740   0.5121   0.2827  75.0322 204.6528
   0.809   0.2060   0.00860   0.00118  -0.0740   0.5106   0.2836  75.1758 204.7505
   0.894   0.2158   0.00860   0.00117  -0.0740   0.5090   0.2844  75.3279 204.8320
   0.980   0.2255   0.00860   0.00116  -0.0740   0.5074   0.2851  75.4868 204.9041
   1.065   0.2352   0.00861   0.00116  -0.0740   0.5057   0.2857  75.6469 204.9702
   1.151   0.2448   0.00860   0.00115  -0.0740   0.5041   0.2866  75.8032 205.0591
   1.236   0.2542   0.00859   0.00114  -0.0739   0.5025   0.2876  75.9542 205.1670
   1.322   0.2639   0.00858   0.00114  -0.0739   0.5008   0.2886  76.1131 205.2758
   1.407   0.2737   0.00857   0.00114  -0.0739   0.4990   0.2896  76.2889 205.3805
   1.492   0.2834   0.00857   0.00114  -0.0739   0.4971   0.2906  76.4701 205.4805
   1.578   0.2930   0.00857   0.00113  -0.0739   0.4952   0.2915  76.6516 205.5753
   1.663   0.3027   0.00858   0.00113  -0.0739   0.4934   0.2923  76.8238 205.6582
   1.749   0.3122   0.00859   0.00112  -0.0738   0.4918   0.2929  76.9816 205.7234
   1.834   0.3220   0.00858   0.00111  -0.0738   0.4901   0.2934  77.1410 205.7749
   1.920   0.3317   0.00858   0.00110  -0.0738   0.4883   0.2938  77.3094 205.8179
   2.005   0.3414   0.00857   0.00109  -0.0738   0.4865   0.2942  77.4824 205.8550
   2.091   0.3511   0.00857   0.00108  -0.0737   0.4847   0.2945  77.6548 205.8912
   2.176   0.3607   0.00858   0.00107  -0.0737   0.4830   0.2948  77.8239 205.9262
   2.261   0.3702   0.00859   0.00106  -0.0736   0.4813   0.2952  77.9881 205.9596
   2.347   0.3800   0.00859   0.00105  -0.0736   0.4794   0.2955  78.1689 205.9917
   2.432   0.3897   0.00857   0.00104  -0.0736   0.4773   0.2959  78.3667 206.0376
   2.518   0.3993   0.00856   0.00103  -0.0736   0.4752   0.2964  78.5714 206.0883
   2.603   0.4089   0.00856   0.00102  -0.0735   0.4731   0.2969  78.7724 206.1376
   2.688   0.4183   0.00856   0.00101  -0.0735   0.4711   0.2973  78.9648 206.1861
   2.774   0.4281   0.00855   0.00100  -0.0735   0.4690   0.2978  79.1680 206.2351
   2.859   0.4378   0.00855   0.00100  -0.0734   0.4666   0.2983  79.3977 206.2844
   2.945   0.4474   0.00855   0.00099  -0.0734   0.4640   0.2988  79.6415 206.3346
   3.030   0.4569   0.00856   0.00098  -0.0733   0.4614   0.2993  79.8895 206.3855
   3.116   0.4665   0.00856   0.00097  -0.0733   0.4587   0.2998  80.1493 206.4380
   3.201   0.4762   0.00856   0.00096  -0.0732   0.4557   0.3003  80.4410 206.4921
   3.286   0.4858   0.00857   0.00096  -0.0732   0.4528   0.3008  80.7214 206.5477
   3.372   0.4952   0.00859   0.00095  -0.0731   0.4500   0.3014  80.9889 206.6045
   3.457   0.5049   0.00859   0.00094  -0.0731   0.4470   0.3019  81.2833 206.6630
   3.543   0.5145   0.00860   0.00094  -0.0730   0.4434   0.3025  81.6231 206.7222
   3.628   0.5239   0.00863   0.00093  -0.0729   0.4398   0.3031  81.9775 206.7817
   3.714   0.5336   0.00864   0.00092  -0.0729   0.4355   0.3037  82.3856 206.8429
   3.799   0.5430   0.00866   0.00091  -0.0728   0.4305   0.3042  82.8736 206.9046
   3.884   0.5525   0.00869   0.00091  -0.0727   0.4251   0.3048  83.3981 206.9644
   4.055   0.5713   0.00874   0.00090  -0.0725   0.4116   0.3063  84.6995 207.1156
   4.141   0.5806   0.00877   0.00089  -0.0724   0.4037   0.3071  85.4730 207.1968
   4.226   0.5897   0.00883   0.00089  -0.0723   0.3927   0.3079  86.5486 207.2775
   4.312   0.5985   0.00892   0.00090  -0.0721   0.3777   0.3086  88.0257 207.3578
   4.397   0.6069   0.00906   0.00092  -0.0719   0.3527   0.3094  90.5135 207.4380
   4.482   0.6096   0.00992   0.00121  -0.0709   0.2312   0.3100 103.3337 207.4984
   4.568   0.6179   0.01011   0.00130  -0.0706   0.2175   0.3108 104.8966 207.5810
   4.653   0.6269   0.01021   0.00135  -0.0705   0.2121   0.3117 105.5259 207.6681
   4.824   0.6452   0.01035   0.00142  -0.0703   0.2054   0.3134 106.3119 207.8488
   4.910   0.6544   0.01041   0.00145  -0.0701   0.2030   0.3143 106.6034 207.9398
   5.080   0.6729   0.01052   0.00152  -0.0699   0.1987   0.3164 107.1152 208.1505
   5.166   0.6823   0.01055   0.00154  -0.0698   0.1968   0.3175 107.3446 208.2693
   5.251   0.6916   0.01060   0.00156  -0.0697   0.1949   0.3188 107.5734 208.3962
   5.337   0.7009   0.01065   0.00159  -0.0696   0.1930   0.3201 107.7970 208.5325
   5.422   0.7100   0.01072   0.00163  -0.0695   0.1912   0.3215 108.0142 208.6772
   5.508   0.7195   0.01074   0.00164  -0.0694   0.1897   0.3230 108.1968 208.8311
   5.593   0.7289   0.01078   0.00166  -0.0693   0.1881   0.3245 108.3916 208.9869
   5.678   0.7382   0.01081   0.00168  -0.0692   0.1865   0.3264 108.5907 209.1730
   5.764   0.7474   0.01086   0.00171  -0.0691   0.1849   0.3285 108.7864 209.3832
   5.849   0.7566   0.01092   0.00174  -0.0689   0.1832   0.3308 108.9894 209.6196
   5.935   0.7660   0.01094   0.00175  -0.0689   0.1818   0.3334 109.1626 209.8865
   6.020   0.7755   0.01096   0.00177  -0.0688   0.1803   0.3365 109.3515 210.1964
   6.106   0.7848   0.01099   0.00179  -0.0687   0.1788   0.3404 109.5457 210.5933
   6.191   0.7941   0.01103   0.00181  -0.0686   0.1772   0.3453 109.7414 211.0825
   6.276   0.8032   0.01107   0.00183  -0.0684   0.1756   0.3527 109.9370 211.8202
   6.447   0.8220   0.01093   0.00186  -0.0684   0.1727   0.4319 110.3128 219.5683
   6.533   0.8304   0.01043   0.00196  -0.0684   0.1712   0.6929 110.5007 244.9677
   6.618   0.8396   0.01049   0.00201  -0.0683   0.1696   0.7048 110.7010 246.2101
   6.704   0.8488   0.01056   0.00204  -0.0681   0.1680   0.7126 110.9038 247.0181
   6.789   0.8580   0.01061   0.00208  -0.0680   0.1664   0.7186 111.1047 247.6584
   6.874   0.8675   0.01065   0.00210  -0.0679   0.1647   0.7233 111.3323 248.1599
   6.960   0.8768   0.01070   0.00212  -0.0677   0.1628   0.7273 111.5719 248.5824
   7.045   0.8860   0.01077   0.00214  -0.0676   0.1610   0.7308 111.8055 248.9564
   7.131   0.8951   0.01083   0.00217  -0.0674   0.1593   0.7335 112.0241 249.2439
   7.216   0.9045   0.01087   0.00220  -0.0673   0.1576   0.7363 112.2536 249.5446
   7.301   0.9138   0.01092   0.00221  -0.0671   0.1557   0.7390 112.5055 249.8377
   7.387   0.9230   0.01098   0.00223  -0.0670   0.1538   0.7413 112.7579 250.0886
   7.472   0.9320   0.01104   0.00226  -0.0668   0.1519   0.7435 113.0060 250.3317
   7.558   0.9413   0.01108   0.00228  -0.0667   0.1499   0.7459 113.2779 250.5881
   7.643   0.9505   0.01114   0.00229  -0.0665   0.1475   0.7481 113.5988 250.8284
   7.729   0.9596   0.01121   0.00231  -0.0663   0.1450   0.7499 113.9280 251.0290
   7.814   0.9687   0.01126   0.00233  -0.0662   0.1425   0.7514 114.2706 251.1948
   7.899   0.9778   0.01131   0.00235  -0.0660   0.1396   0.7529 114.6775 251.3637
   7.985   0.9868   0.01138   0.00237  -0.0658   0.1367   0.7545 115.0712 251.5408
   8.070   0.9959   0.01144   0.00239  -0.0656   0.1334   0.7562 115.5330 251.7268
   8.156   1.0048   0.01152   0.00241  -0.0654   0.1300   0.7578 116.0145 251.9025
   8.241   1.0137   0.01159   0.00243  -0.0653   0.1264   0.7591 116.5295 252.0535
   8.327   1.0224   0.01168   0.00246  -0.0650   0.1228   0.7604 117.0576 252.1882
   8.412   1.0312   0.01175   0.00249  -0.0648   0.1186   0.7616 117.6672 252.3241
   8.498   1.0399   0.01185   0.00253  -0.0646   0.1145   0.7628 118.2768 252.4623
   8.668   1.0569   0.01205   0.00261  -0.0641   0.1060   0.7653 119.5754 252.7477
   8.754   1.0653   0.01217   0.00265  -0.0638   0.1021   0.7666 120.1913 252.8934
   8.839   1.0737   0.01229   0.00270  -0.0635   0.0978   0.7678 120.8756 253.0259
   8.925   1.0820   0.01239   0.00276  -0.0632   0.0937   0.7689 121.5433 253.1456
   9.010   1.0902   0.01252   0.00282  -0.0629   0.0897   0.7699 122.2063 253.2625
   9.095   1.0983   0.01265   0.00288  -0.0626   0.0858   0.7709 122.8550 253.3777
   9.181   1.1065   0.01276   0.00294  -0.0623   0.0822   0.7720 123.4864 253.4953
   9.266   1.1145   0.01290   0.00300  -0.0619   0.0784   0.7730 124.1417 253.6129
   9.352   1.1225   0.01304   0.00307  -0.0616   0.0747   0.7740 124.8129 253.7294
   9.437   1.1305   0.01317   0.00313  -0.0612   0.0714   0.7750 125.4192 253.8425
   9.523   1.1383   0.01333   0.00321  -0.0609   0.0683   0.7760 126.0028 253.9504
   9.608   1.1464   0.01344   0.00326  -0.0605   0.0652   0.7768 126.5846 254.0503
   9.694   1.1542   0.01358   0.00334  -0.0602   0.0624   0.7777 127.1356 254.1530
   9.779   1.1621   0.01370   0.00340  -0.0598   0.0597   0.7787 127.6803 254.2653
   9.864   1.1698   0.01384   0.00347  -0.0594   0.0573   0.7797 128.1590 254.3829
   9.950   1.1777   0.01397   0.00354  -0.0590   0.0551   0.7808 128.6169 254.5018
  10.035   1.1853   0.01412   0.00362  -0.0586   0.0531   0.7818 129.0340 254.6177
  10.121   1.1934   0.01423   0.00368  -0.0583   0.0512   0.7827 129.4458 254.7291
  10.206   1.2011   0.01437   0.00375  -0.0579   0.0493   0.7836 129.8611 254.8329
  10.291   1.2089   0.01450   0.00381  -0.0575   0.0476   0.7845 130.2351 254.9360
  10.377   1.2166   0.01463   0.00388  -0.0571   0.0459   0.7854 130.6273 255.0410
  10.462   1.2239   0.01479   0.00396  -0.0567   0.0443   0.7863 131.0018 255.1473
  10.548   1.2318   0.01490   0.00403  -0.0563   0.0428   0.7873 131.3413 255.2597
  10.633   1.2393   0.01504   0.00410  -0.0559   0.0414   0.7883 131.6917 255.3726
  10.719   1.2465   0.01520   0.00419  -0.0554   0.0400   0.7892 132.0178 255.4831
  10.804   1.2544   0.01530   0.00424  -0.0550   0.0388   0.7901 132.3186 255.5906
  10.889   1.2619   0.01544   0.00431  -0.0546   0.0375   0.7910 132.6438 255.6959
  10.975   1.2691   0.01560   0.00439  -0.0542   0.0363   0.7919 132.9475 255.8025
  11.060   1.2767   0.01572   0.00446  -0.0538   0.0352   0.7929 133.2119 255.9110
  11.231   1.2914   0.01599   0.00460  -0.0529   0.0332   0.7948 133.7518 256.1438
  11.317   1.2983   0.01615   0.00469  -0.0523   0.0322   0.7959 134.0039 256.2746
  11.402   1.3059   0.01627   0.00475  -0.0519   0.0315   0.7971 134.2092 256.4150
  11.487   1.3132   0.01640   0.00482  -0.0515   0.0307   0.7983 134.4277 256.5582
  11.573   1.3203   0.01654   0.00490  -0.0510   0.0299   0.7995 134.6382 256.7004
  11.658   1.3271   0.01671   0.00499  -0.0505   0.0292   0.8007 134.8348 256.8374
  11.744   1.3338   0.01688   0.00508  -0.0499   0.0286   0.8018 135.0171 256.9714
  11.829   1.3412   0.01699   0.00514  -0.0495   0.0281   0.8029 135.1638 257.0991
  11.915   1.3484   0.01711   0.00521  -0.0490   0.0275   0.8040 135.3291 257.2315
  12.000   1.3554   0.01725   0.00529  -0.0485   0.0269   0.8051 135.5006 257.3703
