  
       XFOIL         Version 6.99
  
 Calculated polar for: Repaneled_Airfoil                               
  
 1 1 Reynolds number fixed          Mach number fixed         
  
 xtrf =   1.000 (top)        1.000 (bottom)  
 Mach =   0.000     Re =     1.000 e 6     Ncrit =   9.000  9.000
  
   alpha    CL        CD       CDp       CM     Top_Xtr  Bot_Xtr  Top_Itr  Bot_Itr
  ------ -------- --------- --------- -------- -------- -------- -------- --------
  -5.000  -0.7192   0.01192   0.00275  -0.0342   0.5928   0.0615  67.2898 175.2810
  -4.829  -0.7013   0.01166   0.00260  -0.0342   0.5894   0.0695  67.6201 176.8384
  -4.744  -0.6926   0.01151   0.00251  -0.0341   0.5878   0.0747  67.7724 177.7891
  -4.658  -0.6838   0.01137   0.00242  -0.0341   0.5864   0.0807  67.9144 178.8589
  -4.573  -0.6751   0.01121   0.00233  -0.0340   0.5849   0.0874  68.0534 180.0089
  -4.487  -0.6665   0.01102   0.00222  -0.0339   0.5834   0.0961  68.2040 181.4420
  -4.402  -0.6580   0.01082   0.00212  -0.0339   0.5818   0.1057  68.3561 182.9694
  -4.317  -0.6496   0.01061   0.00200  -0.0338   0.5803   0.1182  68.5044 184.8623
  -4.231  -0.6415   0.01038   0.00188  -0.0337   0.5788   0.1322  68.6464 186.8710
  -4.146  -0.6332   0.01017   0.00179  -0.0335   0.5774   0.1461  68.7811 188.7940
  -4.060  -0.6249   0.00999   0.00172  -0.0334   0.5761   0.1599  68.9087 190.6143
  -3.889  -0.6071   0.00977   0.00166  -0.0334   0.5734   0.1805  69.1726 193.2250
  -3.804  -0.5978   0.00970   0.00166  -0.0334   0.5720   0.1877  69.3142 194.1031
  -3.719  -0.5885   0.00966   0.00167  -0.0334   0.5705   0.1936  69.4551 194.8148
  -3.633  -0.5790   0.00963   0.00168  -0.0334   0.5691   0.1985  69.5922 195.4043
  -3.548  -0.5694   0.00962   0.00168  -0.0334   0.5677   0.2027  69.7231 195.9034
  -3.462  -0.5599   0.00960   0.00169  -0.0334   0.5665   0.2056  69.8466 196.2405
  -3.377  -0.5503   0.00959   0.00170  -0.0334   0.5652   0.2084  69.9648 196.5641
  -3.292  -0.5406   0.00958   0.00170  -0.0335   0.5640   0.2108  70.0870 196.8504
  -3.206  -0.5309   0.00957   0.00170  -0.0335   0.5626   0.2128  70.2168 197.0764
  -3.121  -0.5213   0.00955   0.00172  -0.0335   0.5613   0.2146  70.3485 197.2904
  -3.035  -0.5115   0.00955   0.00174  -0.0336   0.5599   0.2165  70.4799 197.5101
  -2.950  -0.5018   0.00955   0.00175  -0.0336   0.5586   0.2184  70.6086 197.7271
  -2.864  -0.4921   0.00955   0.00175  -0.0336   0.5573   0.2202  70.7330 197.9295
  -2.779  -0.4824   0.00955   0.00176  -0.0337   0.5561   0.2217  70.8528 198.1062
  -2.693  -0.4728   0.00956   0.00178  -0.0337   0.5548   0.2233  70.9702 198.2841
  -2.608  -0.4630   0.00957   0.00180  -0.0337   0.5536   0.2249  71.0931 198.4660
  -2.523  -0.4531   0.00957   0.00182  -0.0338   0.5522   0.2264  71.2245 198.6421
  -2.437  -0.4433   0.00958   0.00183  -0.0338   0.5508   0.2278  71.3574 198.8016
  -2.352  -0.4334   0.00959   0.00182  -0.0339   0.5495   0.2290  71.4888 198.9338
  -2.266  -0.4237   0.00958   0.00182  -0.0339   0.5482   0.2300  71.6156 199.0407
  -2.181  -0.4142   0.00956   0.00182  -0.0339   0.5469   0.2309  71.7352 199.1450
  -2.095  -0.4046   0.00955   0.00184  -0.0339   0.5457   0.2318  71.8488 199.2514
  -2.010  -0.3949   0.00957   0.00185  -0.0339   0.5446   0.2329  71.9592 199.3677
  -1.925  -0.3851   0.00958   0.00187  -0.0340   0.5434   0.2340  72.0712 199.4955
  -1.839  -0.3752   0.00959   0.00189  -0.0340   0.5422   0.2352  72.1894 199.6289
  -1.754  -0.3653   0.00960   0.00190  -0.0341   0.5410   0.2364  72.3086 199.7604
  -1.668  -0.3554   0.00962   0.00191  -0.0341   0.5397   0.2376  72.4273 199.8913
  -1.583  -0.3455   0.00964   0.00192  -0.0342   0.5385   0.2386  72.5434 200.0123
  -1.498  -0.3359   0.00962   0.00194  -0.0342   0.5374   0.2400  72.6541 200.1581
  -1.412  -0.3262   0.00963   0.00197  -0.0342   0.5363   0.2411  72.7605 200.2796
  -1.327  -0.3164   0.00965   0.00200  -0.0342   0.5352   0.2421  72.8627 200.3905
  -1.241  -0.3067   0.00967   0.00201  -0.0343   0.5342   0.2430  72.9624 200.4904
  -1.156  -0.2969   0.00968   0.00202  -0.0343   0.5331   0.2439  73.0617 200.5925
  -1.070  -0.2870   0.00969   0.00203  -0.0343   0.5321   0.2449  73.1655 200.7075
  -0.985  -0.2771   0.00971   0.00205  -0.0344   0.5310   0.2460  73.2720 200.8259
  -0.899  -0.2671   0.00974   0.00205  -0.0344   0.5299   0.2470  73.3787 200.9344
  -0.814  -0.2573   0.00975   0.00206  -0.0345   0.5288   0.2479  73.4829 201.0347
  -0.729  -0.2478   0.00971   0.00206  -0.0345   0.5277   0.2488  73.5839 201.1381
  -0.643  -0.2382   0.00969   0.00207  -0.0345   0.5267   0.2495  73.6818 201.2117
  -0.558  -0.2286   0.00968   0.00207  -0.0345   0.5257   0.2501  73.7761 201.2710
  -0.472  -0.2189   0.00967   0.00206  -0.0345   0.5247   0.2506  73.8721 201.3276
  -0.387  -0.2093   0.00967   0.00205  -0.0345   0.5236   0.2511  73.9800 201.3805
  -0.301  -0.1996   0.00965   0.00204  -0.0345   0.5224   0.2515  74.0984 201.4290
  -0.216  -0.1899   0.00962   0.00203  -0.0345   0.5209   0.2519  74.2393 201.4755
  -0.131  -0.1801   0.00960   0.00201  -0.0346   0.5193   0.2524  74.3945 201.5223
  -0.045  -0.1704   0.00958   0.00199  -0.0346   0.5177   0.2528  74.5512 201.5699
   0.040  -0.1608   0.00956   0.00197  -0.0346   0.5161   0.2533  74.7006 201.6201
   0.126  -0.1511   0.00955   0.00195  -0.0346   0.5147   0.2537  74.8345 201.6728
   0.211  -0.1415   0.00955   0.00193  -0.0346   0.5134   0.2542  74.9596 201.7268
   0.296  -0.1318   0.00954   0.00191  -0.0346   0.5122   0.2547  75.0764 201.7808
   0.382  -0.1220   0.00952   0.00190  -0.0346   0.5110   0.2552  75.1924 201.8325
   0.467  -0.1122   0.00951   0.00188  -0.0346   0.5097   0.2557  75.3198 201.8807
   0.553  -0.1024   0.00950   0.00186  -0.0346   0.5082   0.2560  75.4566 201.9237
   0.638  -0.0927   0.00949   0.00184  -0.0346   0.5068   0.2564  75.5987 201.9605
   0.724  -0.0830   0.00948   0.00182  -0.0347   0.5053   0.2567  75.7413 201.9912
   0.809  -0.0735   0.00944   0.00179  -0.0346   0.5039   0.2571  75.8767 202.0409
   0.894  -0.0641   0.00940   0.00177  -0.0346   0.5025   0.2576  76.0044 202.0935
   0.980  -0.0544   0.00936   0.00176  -0.0346   0.5013   0.2581  76.1260 202.1420
   1.065  -0.0447   0.00933   0.00175  -0.0346   0.5000   0.2585  76.2488 202.1879
   1.151  -0.0350   0.00930   0.00174  -0.0346   0.4987   0.2589  76.3746 202.2323
   1.236  -0.0253   0.00928   0.00173  -0.0346   0.4973   0.2593  76.5036 202.2757
   1.322  -0.0156   0.00926   0.00171  -0.0346   0.4960   0.2597  76.6339 202.3185
   1.407  -0.0060   0.00925   0.00170  -0.0346   0.4947   0.2601  76.7599 202.3607
   1.492   0.0037   0.00924   0.00168  -0.0346   0.4934   0.2605  76.8862 202.4040
   1.578   0.0133   0.00924   0.00167  -0.0346   0.4920   0.2609  77.0141 202.4491
   1.663   0.0231   0.00922   0.00165  -0.0346   0.4906   0.2613  77.1482 202.4953
   1.749   0.0329   0.00920   0.00164  -0.0347   0.4892   0.2618  77.2858 202.5412
   1.834   0.0426   0.00918   0.00163  -0.0347   0.4878   0.2622  77.4221 202.5862
   1.920   0.0524   0.00917   0.00161  -0.0347   0.4863   0.2626  77.5635 202.6304
   2.005   0.0621   0.00916   0.00159  -0.0347   0.4848   0.2630  77.7097 202.6767
   2.091   0.0717   0.00915   0.00158  -0.0347   0.4832   0.2635  77.8618 202.7251
   2.176   0.0814   0.00915   0.00156  -0.0346   0.4816   0.2639  78.0147 202.7742
   2.261   0.0912   0.00914   0.00154  -0.0347   0.4799   0.2644  78.1751 202.8233
   2.347   0.1010   0.00912   0.00153  -0.0347   0.4782   0.2648  78.3435 202.8704
   2.432   0.1108   0.00912   0.00151  -0.0347   0.4764   0.2652  78.5139 202.9139
   2.518   0.1206   0.00912   0.00150  -0.0347   0.4747   0.2656  78.6823 202.9528
   2.603   0.1303   0.00912   0.00148  -0.0347   0.4730   0.2659  78.8428 202.9862
   2.688   0.1398   0.00910   0.00146  -0.0347   0.4714   0.2663  78.9957 203.0294
   2.774   0.1495   0.00905   0.00144  -0.0347   0.4697   0.2668  79.1578 203.0797
   2.859   0.1592   0.00902   0.00143  -0.0347   0.4679   0.2672  79.3331 203.1251
   2.945   0.1689   0.00900   0.00141  -0.0347   0.4658   0.2676  79.5313 203.1680
   3.030   0.1785   0.00898   0.00140  -0.0346   0.4636   0.2680  79.7472 203.2096
   3.116   0.1881   0.00898   0.00138  -0.0346   0.4613   0.2684  79.9665 203.2507
   3.201   0.1979   0.00896   0.00137  -0.0346   0.4588   0.2688  80.2120 203.2926
   3.286   0.2076   0.00894   0.00135  -0.0346   0.4558   0.2692  80.4955 203.3350
   3.372   0.2173   0.00894   0.00134  -0.0346   0.4529   0.2696  80.7814 203.3781
   3.457   0.2269   0.00894   0.00132  -0.0346   0.4502   0.2700  81.0386 203.4218
   3.543   0.2367   0.00892   0.00131  -0.0346   0.4473   0.2704  81.3200 203.4667
   3.628   0.2464   0.00892   0.00129  -0.0346   0.4440   0.2708  81.6358 203.5122
   3.714   0.2560   0.00893   0.00128  -0.0346   0.4407   0.2712  81.9532 203.5581
   3.799   0.2658   0.00892   0.00126  -0.0346   0.4370   0.2717  82.3142 203.6047
   3.884   0.2754   0.00892   0.00125  -0.0346   0.4323   0.2721  82.7703 203.6532
   3.970   0.2850   0.00893   0.00123  -0.0345   0.4272   0.2726  83.2657 203.7037
   4.055   0.2946   0.00895   0.00121  -0.0345   0.4206   0.2731  83.8991 203.7549
   4.141   0.3042   0.00897   0.00120  -0.0345   0.4131   0.2736  84.6328 203.8051
   4.226   0.3137   0.00900   0.00119  -0.0344   0.4035   0.2740  85.5732 203.8533
   4.312   0.3230   0.00907   0.00118  -0.0344   0.3894   0.2744  86.9504 203.8981
   4.397   0.3320   0.00917   0.00118  -0.0343   0.3679   0.2748  89.0808 203.9383
   4.482   0.3353   0.01013   0.00151  -0.0335   0.2039   0.2751 106.5600 203.9647
   4.568   0.3440   0.01032   0.00159  -0.0333   0.1846   0.2754 108.8857 203.9962
   4.653   0.3532   0.01037   0.00162  -0.0332   0.1764   0.2759 109.9086 204.0523
   4.739   0.3625   0.01041   0.00164  -0.0332   0.1700   0.2764 110.7089 204.1073
   4.824   0.3719   0.01045   0.00166  -0.0331   0.1648   0.2769 111.3821 204.1587
   4.995   0.3908   0.01052   0.00169  -0.0331   0.1559   0.2778 112.5380 204.2558
   5.080   0.4002   0.01056   0.00171  -0.0330   0.1520   0.2783 113.0512 204.3034
   5.166   0.4097   0.01059   0.00172  -0.0330   0.1483   0.2787 113.5525 204.3518
   5.251   0.4192   0.01063   0.00173  -0.0329   0.1447   0.2792 114.0277 204.4008
   5.337   0.4287   0.01066   0.00174  -0.0329   0.1413   0.2797 114.4980 204.4520
   5.422   0.4381   0.01070   0.00176  -0.0329   0.1380   0.2802 114.9528 204.5060
   5.508   0.4477   0.01073   0.00177  -0.0328   0.1349   0.2807 115.3792 204.5621
   5.593   0.4572   0.01077   0.00178  -0.0328   0.1318   0.2813 115.8169 204.6204
   5.678   0.4667   0.01080   0.00179  -0.0327   0.1290   0.2818 116.2178 204.6805
   5.764   0.4762   0.01084   0.00180  -0.0327   0.1260   0.2824 116.6416 204.7408
   5.849   0.4856   0.01089   0.00182  -0.0327   0.1233   0.2830 117.0327 204.8001
   5.935   0.4952   0.01092   0.00183  -0.0326   0.1207   0.2835 117.4242 204.8578
   6.020   0.5046   0.01096   0.00184  -0.0326   0.1180   0.2840 117.8128 204.9122
   6.106   0.5141   0.01101   0.00185  -0.0325   0.1156   0.2845 118.1698 204.9615
   6.276   0.5329   0.01108   0.00188  -0.0324   0.1103   0.2856 118.9697 205.0804
   6.362   0.5424   0.01110   0.00189  -0.0324   0.1077   0.2862 119.3678 205.1449
   6.447   0.5518   0.01113   0.00191  -0.0323   0.1050   0.2868 119.7887 205.2044
   6.533   0.5612   0.01117   0.00193  -0.0323   0.1026   0.2874 120.1705 205.2634
   6.618   0.5706   0.01121   0.00194  -0.0322   0.1001   0.2879 120.5679 205.3224
   6.704   0.5799   0.01126   0.00196  -0.0322   0.0977   0.2885 120.9482 205.3819
   6.789   0.5894   0.01130   0.00198  -0.0321   0.0954   0.2891 121.3152 205.4429
   6.874   0.5988   0.01134   0.00200  -0.0320   0.0931   0.2897 121.7068 205.5050
   6.960   0.6081   0.01140   0.00202  -0.0320   0.0909   0.2903 122.0645 205.5684
   7.045   0.6175   0.01144   0.00204  -0.0319   0.0887   0.2909 122.4269 205.6334
   7.131   0.6268   0.01149   0.00206  -0.0318   0.0866   0.2915 122.7870 205.6989
   7.216   0.6361   0.01155   0.00209  -0.0317   0.0847   0.2922 123.1178 205.7642
   7.301   0.6455   0.01159   0.00211  -0.0317   0.0826   0.2928 123.4723 205.8287
   7.387   0.6547   0.01165   0.00214  -0.0316   0.0805   0.2934 123.8332 205.8913
   7.472   0.6640   0.01171   0.00216  -0.0315   0.0786   0.2939 124.1778 205.9506
   7.643   0.6824   0.01182   0.00221  -0.0313   0.0744   0.2953 124.9270 206.0929
   7.729   0.6917   0.01186   0.00224  -0.0313   0.0726   0.2961 125.2741 206.1752
   7.814   0.7009   0.01192   0.00227  -0.0312   0.0706   0.2969 125.6414 206.2554
   7.899   0.7100   0.01199   0.00230  -0.0311   0.0687   0.2976 125.9888 206.3359
   7.985   0.7193   0.01204   0.00233  -0.0310   0.0670   0.2985 126.3237 206.4200
   8.070   0.7285   0.01210   0.00236  -0.0309   0.0651   0.2993 126.6809 206.5069
   8.156   0.7374   0.01218   0.00240  -0.0308   0.0634   0.3001 127.0090 206.5946
   8.241   0.7467   0.01223   0.00243  -0.0307   0.0619   0.3010 127.3216 206.6850
   8.327   0.7558   0.01230   0.00247  -0.0306   0.0602   0.3019 127.6492 206.7759
   8.412   0.7647   0.01238   0.00251  -0.0304   0.0587   0.3027 127.9592 206.8649
   8.498   0.7739   0.01244   0.00254  -0.0303   0.0573   0.3036 128.2432 206.9518
   8.583   0.7830   0.01251   0.00258  -0.0302   0.0559   0.3045 128.5417 207.0484
   8.668   0.7919   0.01259   0.00262  -0.0301   0.0545   0.3056 128.8245 207.1624
   8.754   0.8008   0.01267   0.00267  -0.0299   0.0533   0.3067 129.0870 207.2768
   8.839   0.8099   0.01272   0.00271  -0.0298   0.0520   0.3079 129.3558 207.3955
   8.925   0.8189   0.01280   0.00276  -0.0297   0.0507   0.3091 129.6307 207.5214
   9.010   0.8277   0.01289   0.00281  -0.0295   0.0496   0.3104 129.8889 207.6558
   9.095   0.8366   0.01297   0.00285  -0.0294   0.0485   0.3118 130.1252 207.7998
   9.181   0.8456   0.01304   0.00290  -0.0293   0.0474   0.3132 130.3730 207.9450
   9.266   0.8544   0.01311   0.00294  -0.0291   0.0463   0.3149 130.6191 208.1100
   9.352   0.8631   0.01321   0.00300  -0.0289   0.0453   0.3167 130.8539 208.2987
   9.437   0.8718   0.01330   0.00306  -0.0288   0.0443   0.3188 131.0788 208.5083
   9.523   0.8808   0.01337   0.00311  -0.0286   0.0434   0.3210 131.3025 208.7372
   9.608   0.8896   0.01345   0.00316  -0.0285   0.0424   0.3234 131.5393 208.9799
   9.694   0.8982   0.01354   0.00321  -0.0283   0.0414   0.3264 131.7684 209.2818
   9.779   0.9065   0.01366   0.00329  -0.0281   0.0404   0.3300 132.0067 209.6460
   9.950   0.9243   0.01377   0.00339  -0.0278   0.0387   0.3412 132.4210 210.7787
  10.035   0.9331   0.01384   0.00344  -0.0277   0.0379   0.3542 132.6353 212.0838
  10.121   0.9418   0.01323   0.00351  -0.0280   0.0371   0.6815 132.8280 243.9130
  10.206   0.9500   0.01334   0.00363  -0.0278   0.0363   0.7088 133.0241 246.7300
  10.291   0.9588   0.01342   0.00370  -0.0276   0.0357   0.7185 133.1922 247.7423
  10.377   0.9675   0.01351   0.00377  -0.0274   0.0350   0.7250 133.3771 248.4402
  10.462   0.9761   0.01362   0.00383  -0.0272   0.0342   0.7304 133.5648 249.0097
  10.548   0.9844   0.01373   0.00391  -0.0270   0.0335   0.7349 133.7456 249.4956
  10.633   0.9925   0.01388   0.00400  -0.0267   0.0328   0.7390 133.9316 249.9307
  10.719   1.0009   0.01400   0.00408  -0.0264   0.0323   0.7421 134.0867 250.2740
  10.804   1.0094   0.01410   0.00415  -0.0262   0.0317   0.7453 134.2379 250.6241
  10.889   1.0179   0.01421   0.00422  -0.0260   0.0311   0.7483 134.3967 250.9440
  10.975   1.0263   0.01432   0.00429  -0.0258   0.0306   0.7507 134.5537 251.2060
  11.060   1.0344   0.01444   0.00437  -0.0255   0.0300   0.7531 134.7049 251.4743
  11.146   1.0423   0.01460   0.00447  -0.0252   0.0295   0.7556 134.8572 251.7511
  11.317   1.0584   0.01487   0.00464  -0.0246   0.0285   0.7600 135.1268 252.2352
  11.402   1.0668   0.01497   0.00472  -0.0244   0.0281   0.7620 135.2557 252.4618
  11.487   1.0750   0.01509   0.00479  -0.0241   0.0276   0.7640 135.3889 252.6851
  11.573   1.0832   0.01521   0.00487  -0.0239   0.0272   0.7659 135.5186 252.8939
  11.658   1.0913   0.01534   0.00495  -0.0236   0.0268   0.7675 135.6439 253.0756
  11.744   1.0991   0.01548   0.00504  -0.0233   0.0264   0.7690 135.7635 253.2503
  11.829   1.1067   0.01564   0.00514  -0.0229   0.0260   0.7706 135.8839 253.4257
  11.915   1.1139   0.01584   0.00526  -0.0225   0.0255   0.7721 136.0096 253.5970
  12.000   1.1221   0.01596   0.00534  -0.0223   0.0253   0.7736 136.0947 253.7664
