  
       XFOIL         Version 6.99
  
 Calculated polar for: Repaneled_Airfoil                               
  
 1 1 Reynolds number fixed          Mach number fixed         
  
 xtrf =   1.000 (top)        1.000 (bottom)  
 Mach =   0.000     Re =     1.000 e 6     Ncrit =   9.000  9.000
  
   alpha    CL        CD       CDp       CM     Top_Xtr  Bot_Xtr  Top_Itr  Bot_Itr
  ------ -------- --------- --------- -------- -------- -------- -------- --------
  -5.000  -0.1429   0.00895   0.00199  -0.0986   0.8935   0.0557  32.7587 173.7490
  -4.915  -0.1333   0.00890   0.00195  -0.0986   0.8926   0.0573  32.8941 174.0900
  -4.829  -0.1239   0.00883   0.00191  -0.0985   0.8916   0.0590  33.0392 174.4305
  -4.744  -0.1143   0.00878   0.00189  -0.0985   0.8902   0.0606  33.2556 174.7616
  -4.658  -0.1046   0.00874   0.00186  -0.0985   0.8889   0.0620  33.4557 175.0331
  -4.573  -0.0952   0.00866   0.00181  -0.0985   0.8877   0.0634  33.6430 175.3007
  -4.487  -0.0857   0.00860   0.00177  -0.0984   0.8865   0.0648  33.8144 175.5792
  -4.402  -0.0761   0.00855   0.00172  -0.0984   0.8856   0.0662  33.9649 175.8602
  -4.317  -0.0665   0.00849   0.00169  -0.0984   0.8842   0.0676  34.1664 176.1268
  -4.231  -0.0570   0.00842   0.00166  -0.0984   0.8828   0.0691  34.3788 176.4114
  -4.146  -0.0474   0.00837   0.00162  -0.0983   0.8814   0.0708  34.5788 176.7149
  -3.975  -0.0282   0.00826   0.00154  -0.0983   0.8790   0.0740  34.9343 177.3068
  -3.889  -0.0186   0.00820   0.00152  -0.0983   0.8775   0.0758  35.1520 177.6280
  -3.804  -0.0090   0.00816   0.00149  -0.0982   0.8758   0.0775  35.3988 177.9452
  -3.719   0.0006   0.00810   0.00145  -0.0982   0.8742   0.0792  35.6305 178.2505
  -3.633   0.0102   0.00805   0.00142  -0.0982   0.8728   0.0811  35.8389 178.5792
  -3.548   0.0198   0.00801   0.00138  -0.0981   0.8714   0.0830  36.0394 178.9072
  -3.462   0.0294   0.00795   0.00135  -0.0981   0.8694   0.0848  36.3221 179.2198
  -3.377   0.0390   0.00789   0.00132  -0.0981   0.8675   0.0868  36.5813 179.5577
  -3.292   0.0487   0.00785   0.00129  -0.0981   0.8659   0.0888  36.8074 179.9054
  -3.121   0.0680   0.00775   0.00123  -0.0981   0.8625   0.0928  37.2850 180.5599
  -3.035   0.0777   0.00772   0.00121  -0.0981   0.8605   0.0948  37.5547 180.8898
  -2.950   0.0873   0.00767   0.00117  -0.0980   0.8588   0.0967  37.7967 181.1926
  -2.864   0.0970   0.00762   0.00114  -0.0980   0.8573   0.0987  38.0029 181.5198
  -2.779   0.1067   0.00759   0.00112  -0.0980   0.8551   0.1008  38.2983 181.8615
  -2.693   0.1164   0.00754   0.00110  -0.0980   0.8530   0.1028  38.5834 182.1777
  -2.608   0.1260   0.00750   0.00107  -0.0980   0.8511   0.1050  38.8444 182.5140
  -2.523   0.1357   0.00746   0.00104  -0.0980   0.8490   0.1072  39.1204 182.8616
  -2.437   0.1454   0.00742   0.00102  -0.0980   0.8463   0.1093  39.4726 183.1808
  -2.352   0.1551   0.00738   0.00100  -0.0980   0.8439   0.1115  39.7994 183.5173
  -2.266   0.1648   0.00735   0.00097  -0.0979   0.8413   0.1138  40.1320 183.8605
  -2.181   0.1744   0.00731   0.00094  -0.0979   0.8381   0.1159  40.5478 184.1739
  -2.095   0.1840   0.00727   0.00091  -0.0979   0.8353   0.1182  40.9215 184.5098
  -2.010   0.1938   0.00724   0.00089  -0.0979   0.8317   0.1206  41.3749 184.8656
  -1.925   0.2034   0.00720   0.00086  -0.0979   0.8280   0.1228  41.8445 185.1929
  -1.839   0.2130   0.00716   0.00084  -0.0979   0.8240   0.1252  42.3502 185.5421
  -1.754   0.2226   0.00714   0.00081  -0.0978   0.8196   0.1277  42.8965 185.9004
  -1.668   0.2322   0.00710   0.00078  -0.0978   0.8144   0.1300  43.5364 186.2335
  -1.583   0.2418   0.00707   0.00076  -0.0977   0.8086   0.1326  44.2552 186.5945
  -1.498   0.2513   0.00705   0.00072  -0.0977   0.8010   0.1352  45.1689 186.9538
  -1.412   0.2606   0.00703   0.00069  -0.0976   0.7912   0.1376  46.3243 187.2943
  -1.327   0.2696   0.00702   0.00064  -0.0974   0.7764   0.1403  48.0437 187.6587
  -1.241   0.2781   0.00706   0.00059  -0.0971   0.7524   0.1427  50.7443 187.9953
  -1.156   0.2857   0.00715   0.00055  -0.0966   0.7249   0.1451  53.7328 188.3244
  -1.070   0.2936   0.00725   0.00055  -0.0963   0.7047   0.1478  55.8772 188.6859
  -0.899   0.3107   0.00738   0.00056  -0.0958   0.6793   0.1534  58.5054 189.4269
  -0.814   0.3196   0.00743   0.00056  -0.0957   0.6701   0.1566  59.4404 189.8585
  -0.729   0.3286   0.00746   0.00057  -0.0956   0.6620   0.1599  60.2610 190.2910
  -0.558   0.3468   0.00751   0.00058  -0.0954   0.6474   0.1674  61.7264 191.2594
  -0.472   0.3560   0.00753   0.00058  -0.0953   0.6408   0.1716  62.3839 191.7924
  -0.387   0.3651   0.00755   0.00059  -0.0952   0.6345   0.1758  63.0145 192.3160
  -0.301   0.3744   0.00756   0.00059  -0.0951   0.6282   0.1805  63.6316 192.9033
  -0.216   0.3836   0.00757   0.00059  -0.0950   0.6225   0.1855  64.1959 193.5220
  -0.131   0.3929   0.00758   0.00059  -0.0950   0.6167   0.1913  64.7695 194.2279
   0.126   0.4206   0.00756   0.00059  -0.0948   0.6008   0.2166  66.3267 197.2308
   0.211   0.4297   0.00754   0.00059  -0.0947   0.5957   0.2317  66.8222 198.9642
   0.382   0.4474   0.00734   0.00059  -0.0946   0.5860   0.3141  67.7636 207.8116
   0.467   0.4560   0.00718   0.00060  -0.0945   0.5814   0.3785  68.2105 214.2849
   0.553   0.4646   0.00705   0.00061  -0.0944   0.5764   0.4379  68.6893 220.0550
   0.638   0.4732   0.00693   0.00062  -0.0943   0.5719   0.4914  69.1304 225.1815
   0.724   0.4819   0.00683   0.00064  -0.0942   0.5670   0.5405  69.5974 229.8729
   0.809   0.4904   0.00676   0.00066  -0.0940   0.5626   0.5837  70.0260 234.0354
   0.894   0.4993   0.00670   0.00069  -0.0938   0.5579   0.6204  70.4751 237.6120
   0.980   0.5081   0.00669   0.00072  -0.0937   0.5535   0.6482  70.9029 240.3740
   1.065   0.5172   0.00669   0.00075  -0.0935   0.5492   0.6690  71.3094 242.4652
   1.151   0.5263   0.00670   0.00077  -0.0934   0.5448   0.6844  71.7341 244.0392
   1.236   0.5355   0.00673   0.00079  -0.0933   0.5407   0.6960  72.1219 245.2339
   1.322   0.5448   0.00675   0.00081  -0.0932   0.5364   0.7056  72.5367 246.2316
   1.407   0.5540   0.00678   0.00082  -0.0931   0.5323   0.7140  72.9295 247.1195
   1.492   0.5633   0.00681   0.00084  -0.0931   0.5282   0.7217  73.3219 247.9390
   1.578   0.5726   0.00683   0.00085  -0.0930   0.5239   0.7283  73.7321 248.6360
   1.663   0.5817   0.00686   0.00086  -0.0929   0.5199   0.7344  74.1133 249.2985
   1.749   0.5911   0.00689   0.00087  -0.0928   0.5156   0.7406  74.5318 249.9720
   1.834   0.6002   0.00692   0.00088  -0.0927   0.5113   0.7460  74.9342 250.5640
   1.920   0.6095   0.00694   0.00089  -0.0926   0.5071   0.7514  75.3352 251.1510
   2.005   0.6186   0.00697   0.00090  -0.0925   0.5028   0.7566  75.7516 251.7291
   2.091   0.6277   0.00699   0.00091  -0.0924   0.4988   0.7618  76.1363 252.3108
   2.176   0.6370   0.00701   0.00091  -0.0923   0.4944   0.7674  76.5559 252.9375
   2.261   0.6460   0.00704   0.00092  -0.0922   0.4902   0.7727  76.9496 253.5472
   2.347   0.6552   0.00706   0.00093  -0.0921   0.4861   0.7783  77.3419 254.1803
   2.432   0.6643   0.00707   0.00094  -0.0920   0.4819   0.7839  77.7435 254.8328
   2.518   0.6732   0.00709   0.00094  -0.0918   0.4782   0.7899  78.1055 255.5358
   2.603   0.6823   0.00710   0.00095  -0.0917   0.4741   0.7967  78.4942 256.3362
   2.688   0.6911   0.00711   0.00096  -0.0915   0.4701   0.8046  78.8729 257.2770
   2.774   0.6999   0.00710   0.00097  -0.0913   0.4663   0.8146  79.2396 258.4895
   2.859   0.7083   0.00708   0.00097  -0.0911   0.4621   0.8298  79.6385 260.3880
   2.945   0.7147   0.00693   0.00100  -0.0903   0.4585   0.8843  79.9891 267.8528
   3.030   0.7456   0.00693   0.00107  -0.0950   0.4518   0.9958  80.6327 294.8427
   3.116   0.7575   0.00699   0.00109  -0.0956   0.4475   1.0000  81.0379 301.0000
   3.201   0.7665   0.00703   0.00110  -0.0954   0.4435   1.0000  81.4221 301.0000
   3.286   0.7754   0.00709   0.00111  -0.0953   0.4396   1.0000  81.7995 301.0000
   3.372   0.7843   0.00714   0.00112  -0.0951   0.4360   1.0000  82.1524 301.0000
   3.457   0.7933   0.00718   0.00113  -0.0950   0.4319   1.0000  82.5459 301.0000
   3.543   0.8021   0.00724   0.00114  -0.0949   0.4279   1.0000  82.9238 301.0000
   3.628   0.8110   0.00729   0.00115  -0.0947   0.4241   1.0000  83.2931 301.0000
   3.714   0.8199   0.00734   0.00116  -0.0946   0.4201   1.0000  83.6819 301.0000
   3.799   0.8287   0.00741   0.00118  -0.0944   0.4165   1.0000  84.0340 301.0000
   3.884   0.8377   0.00745   0.00119  -0.0943   0.4127   1.0000  84.4026 301.0000
   3.970   0.8466   0.00751   0.00120  -0.0942   0.4089   1.0000  84.7672 301.0000
   4.055   0.8554   0.00757   0.00121  -0.0940   0.4055   1.0000  85.0956 301.0000
   4.141   0.8644   0.00761   0.00123  -0.0939   0.4019   1.0000  85.4528 301.0000
   4.226   0.8732   0.00767   0.00124  -0.0937   0.3982   1.0000  85.8084 301.0000
   4.312   0.8821   0.00773   0.00126  -0.0936   0.3949   1.0000  86.1363 301.0000
   4.397   0.8910   0.00778   0.00127  -0.0935   0.3912   1.0000  86.4894 301.0000
   4.482   0.8998   0.00784   0.00129  -0.0933   0.3877   1.0000  86.8384 301.0000
   4.568   0.9086   0.00790   0.00130  -0.0932   0.3841   1.0000  87.1945 301.0000
   4.653   0.9174   0.00796   0.00132  -0.0930   0.3799   1.0000  87.6069 301.0000
   4.739   0.9260   0.00804   0.00134  -0.0928   0.3757   1.0000  88.0127 301.0000
   4.824   0.9349   0.00809   0.00135  -0.0927   0.3711   1.0000  88.4713 301.0000
   4.910   0.9435   0.00817   0.00137  -0.0925   0.3665   1.0000  88.9235 301.0000
   4.995   0.9523   0.00823   0.00138  -0.0924   0.3622   1.0000  89.3493 301.0000
   5.080   0.9610   0.00830   0.00140  -0.0922   0.3580   1.0000  89.7659 301.0000
   5.166   0.9696   0.00837   0.00142  -0.0920   0.3544   1.0000  90.1312 301.0000
   5.251   0.9785   0.00843   0.00143  -0.0919   0.3505   1.0000  90.5228 301.0000
   5.337   0.9870   0.00851   0.00145  -0.0917   0.3467   1.0000  90.9041 301.0000
   5.422   0.9958   0.00857   0.00147  -0.0915   0.3428   1.0000  91.2924 301.0000
   5.508   1.0045   0.00864   0.00149  -0.0914   0.3385   1.0000  91.7302 301.0000
   5.593   1.0131   0.00872   0.00151  -0.0912   0.3343   1.0000  92.1462 301.0000
   5.678   1.0217   0.00879   0.00153  -0.0910   0.3299   1.0000  92.6006 301.0000
   5.764   1.0301   0.00888   0.00155  -0.0908   0.3257   1.0000  93.0249 301.0000
   5.849   1.0389   0.00894   0.00157  -0.0907   0.3214   1.0000  93.4652 301.0000
   5.935   1.0473   0.00903   0.00159  -0.0905   0.3171   1.0000  93.9021 301.0000
   6.020   1.0560   0.00909   0.00161  -0.0903   0.3130   1.0000  94.3236 301.0000
   6.106   1.0645   0.00917   0.00163  -0.0901   0.3087   1.0000  94.7635 301.0000
   6.191   1.0731   0.00925   0.00165  -0.0899   0.3051   1.0000  95.1409 301.0000
   6.276   1.0818   0.00932   0.00167  -0.0898   0.3016   1.0000  95.5093 301.0000
   6.362   1.0902   0.00940   0.00169  -0.0896   0.2983   1.0000  95.8515 301.0000
   6.447   1.0988   0.00947   0.00171  -0.0894   0.2950   1.0000  96.1895 301.0000
   6.533   1.1074   0.00954   0.00173  -0.0892   0.2912   1.0000  96.5895 301.0000
   6.704   1.1243   0.00970   0.00178  -0.0888   0.2835   1.0000  97.4033 301.0000
   6.789   1.1327   0.00979   0.00180  -0.0886   0.2794   1.0000  97.8371 301.0000
   6.874   1.1412   0.00987   0.00182  -0.0884   0.2758   1.0000  98.2245 301.0000
   6.960   1.1496   0.00995   0.00185  -0.0883   0.2720   1.0000  98.6340 301.0000
   7.045   1.1578   0.01005   0.00187  -0.0880   0.2683   1.0000  99.0231 301.0000
   7.131   1.1664   0.01012   0.00189  -0.0878   0.2645   1.0000  99.4378 301.0000
   7.216   1.1746   0.01021   0.00192  -0.0876   0.2605   1.0000  99.8755 301.0000
   7.301   1.1830   0.01029   0.00195  -0.0874   0.2566   1.0000 100.2965 301.0000
   7.387   1.1913   0.01038   0.00197  -0.0872   0.2522   1.0000 100.7846 301.0000
   7.472   1.1995   0.01047   0.00200  -0.0870   0.2481   1.0000 101.2377 301.0000
   7.558   1.2077   0.01057   0.00203  -0.0867   0.2436   1.0000 101.7361 301.0000
   7.643   1.2158   0.01067   0.00206  -0.0865   0.2392   1.0000 102.2210 301.0000
   7.729   1.2238   0.01078   0.00209  -0.0862   0.2341   1.0000 102.8001 301.0000
   7.814   1.2318   0.01088   0.00212  -0.0860   0.2286   1.0000 103.4157 301.0000
   7.899   1.2395   0.01101   0.00216  -0.0857   0.2221   1.0000 104.1678 301.0000
   7.985   1.2469   0.01116   0.00220  -0.0853   0.2151   1.0000 104.9740 301.0000
   8.070   1.2543   0.01131   0.00225  -0.0850   0.2070   1.0000 105.9226 301.0000
   8.156   1.2613   0.01149   0.00232  -0.0846   0.1963   1.0000 107.1892 301.0000
   8.241   1.2676   0.01171   0.00240  -0.0841   0.1844   1.0000 108.6418 301.0000
   8.327   1.2732   0.01199   0.00251  -0.0834   0.1694   1.0000 110.5198 301.0000
   8.412   1.2782   0.01231   0.00265  -0.0827   0.1528   1.0000 112.6747 301.0000
   8.498   1.2824   0.01270   0.00282  -0.0819   0.1347   1.0000 115.1396 301.0000
   8.583   1.2862   0.01310   0.00301  -0.0810   0.1162   1.0000 117.8146 301.0000
   8.668   1.2903   0.01348   0.00320  -0.0802   0.1007   1.0000 120.1948 301.0000
   8.754   1.2949   0.01381   0.00336  -0.0794   0.0884   1.0000 122.1951 301.0000
   8.839   1.3002   0.01408   0.00349  -0.0787   0.0796   1.0000 123.7225 301.0000
   8.925   1.3057   0.01434   0.00362  -0.0781   0.0724   1.0000 125.0095 301.0000
   9.010   1.3115   0.01457   0.00373  -0.0775   0.0670   1.0000 126.0155 301.0000
   9.181   1.3236   0.01496   0.00391  -0.0763   0.0583   1.0000 127.7320 301.0000
   9.266   1.3293   0.01514   0.00399  -0.0757   0.0552   1.0000 128.3903 301.0000
   9.437   1.3410   0.01550   0.00415  -0.0745   0.0498   1.0000 129.5365 301.0000
   9.523   1.3466   0.01568   0.00423  -0.0738   0.0475   1.0000 130.0456 301.0000
   9.608   1.3526   0.01584   0.00430  -0.0733   0.0455   1.0000 130.5044 301.0000
   9.694   1.3583   0.01603   0.00439  -0.0726   0.0437   1.0000 130.9251 301.0000
   9.779   1.3643   0.01619   0.00446  -0.0721   0.0421   1.0000 131.2852 301.0000
   9.864   1.3702   0.01636   0.00454  -0.0715   0.0406   1.0000 131.6472 301.0000
   9.950   1.3756   0.01656   0.00463  -0.0708   0.0392   1.0000 131.9839 301.0000
  10.035   1.3819   0.01671   0.00470  -0.0703   0.0380   1.0000 132.2903 301.0000
  10.121   1.3879   0.01688   0.00478  -0.0698   0.0367   1.0000 132.6209 301.0000
  10.206   1.3934   0.01707   0.00487  -0.0692   0.0355   1.0000 132.9257 301.0000
  10.291   1.3994   0.01724   0.00495  -0.0686   0.0345   1.0000 133.1930 301.0000
  10.377   1.4053   0.01741   0.00502  -0.0681   0.0334   1.0000 133.4710 301.0000
  10.462   1.4109   0.01760   0.00511  -0.0675   0.0324   1.0000 133.7381 301.0000
  10.548   1.4161   0.01781   0.00521  -0.0669   0.0315   1.0000 133.9952 301.0000
  10.633   1.4222   0.01797   0.00529  -0.0664   0.0307   1.0000 134.2078 301.0000
  10.719   1.4280   0.01815   0.00538  -0.0658   0.0299   1.0000 134.4353 301.0000
  10.804   1.4336   0.01835   0.00547  -0.0653   0.0291   1.0000 134.6560 301.0000
  10.889   1.4387   0.01857   0.00558  -0.0646   0.0284   1.0000 134.8665 301.0000
  10.975   1.4441   0.01878   0.00568  -0.0640   0.0277   1.0000 135.0564 301.0000
  11.060   1.4501   0.01894   0.00576  -0.0635   0.0271   1.0000 135.2351 301.0000
  11.146   1.4558   0.01913   0.00585  -0.0630   0.0265   1.0000 135.4256 301.0000
  11.231   1.4612   0.01933   0.00595  -0.0625   0.0259   1.0000 135.6117 301.0000
  11.317   1.4664   0.01955   0.00606  -0.0619   0.0253   1.0000 135.7846 301.0000
  11.402   1.4713   0.01979   0.00618  -0.0613   0.0247   1.0000 135.9471 301.0000
  11.487   1.4766   0.02000   0.00628  -0.0607   0.0243   1.0000 136.0799 301.0000
  11.573   1.4821   0.02020   0.00638  -0.0602   0.0239   1.0000 136.2109 301.0000
  11.658   1.4874   0.02041   0.00649  -0.0596   0.0235   1.0000 136.3448 301.0000
  11.744   1.4926   0.02063   0.00660  -0.0590   0.0231   1.0000 136.4776 301.0000
  11.829   1.4976   0.02086   0.00672  -0.0585   0.0227   1.0000 136.6062 301.0000
  11.915   1.5024   0.02111   0.00685  -0.0579   0.0223   1.0000 136.7298 301.0000
  12.000   1.5069   0.02138   0.00699  -0.0572   0.0219   1.0000 136.8510 301.0000
