  
       XFOIL         Version 6.99
  
 Calculated polar for: Repaneled_Airfoil                               
  
 1 1 Reynolds number fixed          Mach number fixed         
  
 xtrf =   1.000 (top)        1.000 (bottom)  
 Mach =   0.000     Re =     1.000 e 6     Ncrit =   9.000  9.000
  
   alpha    CL        CD       CDp       CM     Top_Xtr  Bot_Xtr  Top_Itr  Bot_Itr
  ------ -------- --------- --------- -------- -------- -------- -------- --------
  -5.000  -0.9068   0.01284   0.00286   0.0558   0.7349   0.0323  52.6863 168.4681
  -4.915  -0.8980   0.01276   0.00281   0.0560   0.7338   0.0331  52.8092 168.6803
  -4.829  -0.8891   0.01269   0.00277   0.0561   0.7328   0.0339  52.9212 168.8877
  -4.744  -0.8802   0.01261   0.00273   0.0562   0.7317   0.0346  53.0361 169.0909
  -4.658  -0.8713   0.01251   0.00269   0.0564   0.7304   0.0356  53.1806 169.3266
  -4.573  -0.8623   0.01243   0.00265   0.0565   0.7290   0.0365  53.3264 169.5778
  -4.487  -0.8533   0.01235   0.00261   0.0566   0.7277   0.0375  53.4697 169.8275
  -4.402  -0.8443   0.01228   0.00258   0.0567   0.7264   0.0384  53.6077 170.0573
  -4.317  -0.8354   0.01219   0.00253   0.0568   0.7252   0.0395  53.7389 170.3217
  -4.231  -0.8265   0.01211   0.00249   0.0570   0.7240   0.0407  53.8626 170.6067
  -4.146  -0.8175   0.01204   0.00245   0.0571   0.7229   0.0419  53.9808 170.8969
  -4.060  -0.8085   0.01195   0.00241   0.0572   0.7214   0.0432  54.1381 171.2120
  -3.975  -0.7996   0.01186   0.00237   0.0573   0.7199   0.0450  54.3060 171.6142
  -3.804  -0.7816   0.01168   0.00230   0.0575   0.7169   0.0492  54.6225 172.5569
  -3.719  -0.7726   0.01161   0.00226   0.0576   0.7156   0.0516  54.7630 173.0879
  -3.633  -0.7637   0.01151   0.00222   0.0578   0.7144   0.0544  54.8908 173.6930
  -3.548  -0.7548   0.01142   0.00217   0.0579   0.7132   0.0575  55.0131 174.3386
  -3.462  -0.7458   0.01132   0.00214   0.0580   0.7117   0.0611  55.1768 175.0698
  -3.377  -0.7369   0.01122   0.00209   0.0581   0.7101   0.0654  55.3376 175.8965
  -3.292  -0.7280   0.01110   0.00205   0.0582   0.7087   0.0700  55.4909 176.7718
  -3.206  -0.7191   0.01099   0.00200   0.0584   0.7073   0.0756  55.6344 177.8007
  -3.121  -0.7104   0.01087   0.00195   0.0585   0.7061   0.0822  55.7674 178.9842
  -3.035  -0.7017   0.01073   0.00189   0.0587   0.7049   0.0903  55.8910 180.3544
  -2.950  -0.6932   0.01058   0.00182   0.0589   0.7038   0.1008  56.0114 182.0566
  -2.864  -0.6849   0.01038   0.00174   0.0591   0.7021   0.1147  56.1819 184.2047
  -2.779  -0.6772   0.01011   0.00163   0.0594   0.7004   0.1375  56.3580 187.4788
  -2.693  -0.6713   0.00965   0.00146   0.0599   0.6988   0.1853  56.5294 193.6987
  -2.608  -0.6636   0.00943   0.00143   0.0602   0.6972   0.2162  56.7016 197.3886
  -2.523  -0.6548   0.00935   0.00141   0.0604   0.6955   0.2303  56.8701 199.0026
  -2.437  -0.6458   0.00929   0.00140   0.0605   0.6939   0.2388  57.0459 199.9492
  -2.352  -0.6367   0.00922   0.00140   0.0606   0.6915   0.2454  57.2855 200.6903
  -2.266  -0.6275   0.00916   0.00139   0.0607   0.6893   0.2509  57.5219 201.2900
  -2.181  -0.6182   0.00913   0.00138   0.0607   0.6872   0.2559  57.7386 201.8476
  -2.095  -0.6090   0.00908   0.00136   0.0609   0.6853   0.2599  57.9312 202.2824
  -2.010  -0.5997   0.00904   0.00136   0.0609   0.6831   0.2639  58.1572 202.7161
  -1.925  -0.5903   0.00900   0.00135   0.0610   0.6808   0.2673  58.3994 203.0773
  -1.839  -0.5811   0.00895   0.00134   0.0611   0.6786   0.2705  58.6175 203.4269
  -1.754  -0.5718   0.00892   0.00132   0.0612   0.6768   0.2737  58.8083 203.7664
  -1.668  -0.5624   0.00890   0.00131   0.0612   0.6752   0.2765  58.9735 204.0687
  -1.583  -0.5532   0.00885   0.00130   0.0613   0.6732   0.2796  59.1735 204.3916
  -1.498  -0.5438   0.00881   0.00130   0.0614   0.6712   0.2827  59.3755 204.7218
  -1.327  -0.5251   0.00874   0.00127   0.0615   0.6673   0.2877  59.7742 205.2470
  -1.241  -0.5158   0.00871   0.00125   0.0616   0.6655   0.2899  59.9564 205.4790
  -1.156  -0.5064   0.00868   0.00124   0.0617   0.6633   0.2920  60.1855 205.7039
  -1.070  -0.4969   0.00865   0.00123   0.0617   0.6609   0.2941  60.4295 205.9180
  -0.985  -0.4876   0.00861   0.00122   0.0618   0.6586   0.2960  60.6614 206.1227
  -0.899  -0.4784   0.00857   0.00120   0.0619   0.6565   0.2982  60.8686 206.3500
  -0.814  -0.4690   0.00854   0.00119   0.0619   0.6545   0.3007  61.0747 206.6065
  -0.729  -0.4595   0.00851   0.00118   0.0620   0.6519   0.3033  61.3300 206.8836
  -0.643  -0.4502   0.00848   0.00117   0.0621   0.6494   0.3059  61.5853 207.1457
  -0.558  -0.4410   0.00844   0.00115   0.0622   0.6470   0.3084  61.8250 207.4058
  -0.472  -0.4317   0.00841   0.00114   0.0622   0.6447   0.3107  62.0538 207.6417
  -0.387  -0.4221   0.00838   0.00113   0.0623   0.6419   0.3128  62.3308 207.8582
  -0.301  -0.4127   0.00835   0.00111   0.0623   0.6394   0.3149  62.5876 208.0778
  -0.216  -0.4036   0.00831   0.00110   0.0624   0.6371   0.3175  62.8182 208.3419
  -0.131  -0.3943   0.00828   0.00108   0.0625   0.6350   0.3204  63.0241 208.6393
  -0.045  -0.3847   0.00825   0.00108   0.0625   0.6325   0.3235  63.2759 208.9508
   0.040  -0.3755   0.00820   0.00106   0.0626   0.6299   0.3265  63.5314 209.2623
   0.126  -0.3663   0.00817   0.00105   0.0627   0.6274   0.3298  63.7786 209.5916
   0.211  -0.3569   0.00815   0.00103   0.0628   0.6250   0.3328  64.0123 209.9020
   0.296  -0.3476   0.00810   0.00102   0.0629   0.6221   0.3358  64.3078 210.2052
   0.382  -0.3384   0.00806   0.00101   0.0629   0.6191   0.3392  64.6041 210.5453
   0.467  -0.3290   0.00804   0.00099   0.0630   0.6163   0.3427  64.8791 210.8987
   0.553  -0.3198   0.00800   0.00098   0.0631   0.6135   0.3461  65.1513 211.2362
   0.638  -0.3105   0.00796   0.00097   0.0632   0.6106   0.3497  65.4407 211.5960
   0.724  -0.3011   0.00793   0.00095   0.0632   0.6078   0.3533  65.7125 211.9604
   0.809  -0.2920   0.00789   0.00093   0.0633   0.6053   0.3569  65.9591 212.3164
   0.894  -0.2826   0.00785   0.00092   0.0634   0.6025   0.3611  66.2321 212.7340
   0.980  -0.2734   0.00781   0.00091   0.0635   0.5995   0.3655  66.5218 213.1743
   1.065  -0.2642   0.00777   0.00090   0.0636   0.5966   0.3708  66.8035 213.6956
   1.151  -0.2551   0.00773   0.00088   0.0637   0.5939   0.3765  67.0735 214.2573
   1.236  -0.2459   0.00769   0.00087   0.0638   0.5906   0.3833  67.3887 214.9253
   1.322  -0.2369   0.00763   0.00085   0.0639   0.5873   0.3909  67.7100 215.6705
   1.407  -0.2279   0.00758   0.00084   0.0641   0.5842   0.3997  68.0143 216.5250
   1.492  -0.2190   0.00752   0.00082   0.0642   0.5805   0.4100  68.3719 217.5269
   1.578  -0.2102   0.00745   0.00081   0.0644   0.5768   0.4222  68.7317 218.7036
   1.663  -0.2016   0.00738   0.00079   0.0645   0.5735   0.4364  69.0559 220.0811
   1.749  -0.1931   0.00728   0.00077   0.0648   0.5697   0.4536  69.4195 221.7318
   1.834  -0.1849   0.00718   0.00075   0.0650   0.5660   0.4744  69.7770 223.7202
   1.920  -0.1771   0.00705   0.00072   0.0654   0.5626   0.5001  70.1058 226.1681
   2.005  -0.1699   0.00688   0.00069   0.0658   0.5589   0.5333  70.4649 229.3404
   2.091  -0.1637   0.00663   0.00063   0.0664   0.5554   0.5794  70.8052 233.7708
   2.176  -0.1646   0.00590   0.00043   0.0684   0.5529   0.6986  71.0487 245.6617
   2.261  -0.1640   0.00555   0.00070   0.0706   0.5497   0.8444  71.3490 262.4236
   2.347  -0.1545   0.00559   0.00074   0.0707   0.5453   0.8543  71.7776 263.7349
   2.432  -0.1449   0.00564   0.00078   0.0708   0.5409   0.8602  72.1973 264.5405
   2.518  -0.1352   0.00568   0.00081   0.0708   0.5360   0.8649  72.6669 265.1869
   2.603  -0.1256   0.00573   0.00084   0.0709   0.5313   0.8688  73.1198 265.7362
   2.688  -0.1159   0.00577   0.00087   0.0709   0.5258   0.8720  73.6521 266.1848
   2.774  -0.1063   0.00582   0.00091   0.0710   0.5203   0.8748  74.1767 266.5836
   2.859  -0.0966   0.00586   0.00092   0.0710   0.5142   0.8776  74.7564 266.9988
   2.945  -0.0870   0.00592   0.00097   0.0711   0.5082   0.8794  75.3341 267.2601
   3.030  -0.0774   0.00598   0.00101   0.0711   0.5016   0.8814  75.9713 267.5551
   3.116  -0.0677   0.00602   0.00103   0.0712   0.4944   0.8836  76.6600 267.8745
   3.201  -0.0581   0.00608   0.00106   0.0712   0.4873   0.8852  77.3408 268.1184
   3.286  -0.0486   0.00615   0.00111   0.0713   0.4795   0.8866  78.0869 268.3282
   3.372  -0.0390   0.00622   0.00114   0.0713   0.4707   0.8882  78.9282 268.5599
   3.457  -0.0294   0.00628   0.00117   0.0714   0.4609   0.8898  79.8701 268.8107
   3.543  -0.0199   0.00635   0.00119   0.0714   0.4496   0.8914  80.9574 269.0413
   3.628  -0.0105   0.00644   0.00124   0.0715   0.4360   0.8923  82.2662 269.1929
   3.714  -0.0012   0.00656   0.00128   0.0716   0.4179   0.8934  84.0138 269.3608
   3.799   0.0079   0.00669   0.00133   0.0717   0.3925   0.8946  86.4929 269.5476
   3.884   0.0165   0.00690   0.00138   0.0718   0.3524   0.8960  90.4604 269.7550
   3.970   0.0236   0.00738   0.00149   0.0720   0.2567   0.8975 100.4351 269.9850
   4.055   0.0323   0.00758   0.00159   0.0721   0.2334   0.8983 103.0248 270.1184
   4.141   0.0415   0.00771   0.00167   0.0722   0.2243   0.8992 104.0564 270.2607
   4.226   0.0508   0.00781   0.00174   0.0723   0.2184   0.9002 104.7387 270.4187
   4.312   0.0602   0.00790   0.00180   0.0724   0.2139   0.9013 105.2623 270.5969
   4.397   0.0696   0.00797   0.00184   0.0724   0.2099   0.9025 105.7271 270.7922
   4.482   0.0792   0.00803   0.00187   0.0724   0.2065   0.9039 106.1251 271.0051
   4.568   0.0885   0.00811   0.00194   0.0725   0.2035   0.9045 106.4874 271.1106
   4.653   0.0978   0.00819   0.00200   0.0727   0.2006   0.9052 106.8310 271.2234
   4.739   0.1072   0.00826   0.00205   0.0727   0.1980   0.9059 107.1416 271.3424
   4.824   0.1167   0.00832   0.00210   0.0728   0.1954   0.9067 107.4579 271.4668
   4.910   0.1262   0.00838   0.00214   0.0729   0.1928   0.9075 107.7636 271.5984
   4.995   0.1357   0.00845   0.00217   0.0729   0.1906   0.9084 108.0378 271.7406
   5.080   0.1454   0.00848   0.00218   0.0729   0.1885   0.9093 108.2945 271.8956
   5.166   0.1550   0.00852   0.00221   0.0729   0.1863   0.9101 108.5611 272.0287
   5.251   0.1643   0.00859   0.00226   0.0730   0.1842   0.9106 108.8261 272.1079
   5.337   0.1736   0.00865   0.00230   0.0731   0.1821   0.9111 109.0799 272.1942
   5.422   0.1831   0.00870   0.00234   0.0731   0.1800   0.9117 109.3452 272.2858
   5.508   0.1925   0.00876   0.00238   0.0732   0.1778   0.9122 109.6131 272.3844
   5.593   0.2019   0.00882   0.00242   0.0733   0.1758   0.9129 109.8662 272.4915
   5.678   0.2114   0.00887   0.00245   0.0733   0.1739   0.9136 110.1022 272.6061
   5.764   0.2210   0.00891   0.00247   0.0733   0.1719   0.9143 110.3550 272.7308
   5.849   0.2306   0.00895   0.00248   0.0733   0.1698   0.9151 110.6236 272.8624
   5.935   0.2403   0.00899   0.00249   0.0732   0.1677   0.9159 110.8955 273.0023
   6.020   0.2496   0.00904   0.00253   0.0733   0.1657   0.9163 111.1566 273.0708
   6.106   0.2590   0.00909   0.00256   0.0734   0.1635   0.9167 111.4390 273.1443
   6.191   0.2683   0.00914   0.00260   0.0735   0.1614   0.9172 111.7146 273.2221
   6.276   0.2775   0.00921   0.00263   0.0736   0.1594   0.9177 111.9690 273.3059
   6.362   0.2869   0.00925   0.00266   0.0737   0.1575   0.9182 112.2160 273.3939
   6.447   0.2964   0.00930   0.00269   0.0737   0.1555   0.9187 112.4836 273.4880
   6.533   0.3058   0.00935   0.00271   0.0738   0.1534   0.9193 112.7540 273.5883
   6.618   0.3152   0.00941   0.00274   0.0738   0.1514   0.9199 113.0238 273.6961
   6.704   0.3249   0.00944   0.00275   0.0738   0.1492   0.9206 113.3160 273.8111
   6.789   0.3346   0.00947   0.00275   0.0737   0.1468   0.9213 113.6384 273.9347
   6.874   0.3440   0.00953   0.00277   0.0737   0.1445   0.9218 113.9491 274.0300
   6.960   0.3532   0.00957   0.00280   0.0738   0.1424   0.9222 114.2440 274.0934
   7.045   0.3624   0.00962   0.00283   0.0739   0.1402   0.9225 114.5525 274.1629
   7.131   0.3716   0.00969   0.00287   0.0740   0.1380   0.9230 114.8440 274.2388
   7.216   0.3808   0.00974   0.00290   0.0741   0.1361   0.9234 115.1142 274.3199
   7.301   0.3901   0.00979   0.00293   0.0742   0.1339   0.9239 115.4172 274.4086
   7.387   0.3993   0.00985   0.00295   0.0742   0.1317   0.9244 115.7388 274.5001
   7.472   0.4086   0.00991   0.00298   0.0743   0.1294   0.9250 116.0528 274.5989
   7.558   0.4180   0.00995   0.00300   0.0743   0.1271   0.9256 116.3925 274.7062
   7.643   0.4274   0.01001   0.00301   0.0743   0.1246   0.9262 116.7513 274.8191
   7.729   0.4370   0.01006   0.00302   0.0742   0.1222   0.9268 117.0917 274.9356
   7.814   0.4465   0.01011   0.00304   0.0742   0.1198   0.9273 117.4588 275.0269
   7.899   0.4554   0.01017   0.00308   0.0744   0.1173   0.9277 117.8210 275.0901
   7.985   0.4644   0.01024   0.00311   0.0745   0.1151   0.9281 118.1559 275.1605
   8.070   0.4734   0.01030   0.00315   0.0746   0.1126   0.9285 118.5255 275.2364
   8.156   0.4824   0.01037   0.00318   0.0747   0.1103   0.9289 118.8821 275.3137
   8.241   0.4915   0.01043   0.00322   0.0748   0.1081   0.9293 119.2119 275.3943
   8.327   0.5005   0.01050   0.00325   0.0749   0.1058   0.9298 119.5728 275.4858
   8.412   0.5096   0.01058   0.00328   0.0750   0.1035   0.9304 119.9288 275.5865
   8.498   0.5188   0.01064   0.00331   0.0750   0.1013   0.9309 120.2821 275.6883
   8.583   0.5281   0.01070   0.00333   0.0750   0.0987   0.9314 120.6883 275.7870
   8.668   0.5375   0.01077   0.00336   0.0749   0.0963   0.9319 121.0755 275.8766
   8.754   0.5472   0.01082   0.00337   0.0748   0.0937   0.9323 121.4965 275.9578
   8.839   0.5565   0.01090   0.00340   0.0748   0.0912   0.9327 121.9191 276.0168
   8.925   0.5656   0.01096   0.00343   0.0749   0.0889   0.9328 122.3044 276.0533
   9.010   0.5747   0.01104   0.00347   0.0749   0.0865   0.9330 122.7056 276.0894
   9.095   0.5837   0.01112   0.00351   0.0750   0.0844   0.9332 123.0697 276.1285
   9.181   0.5928   0.01119   0.00354   0.0750   0.0822   0.9335 123.4543 276.1750
   9.266   0.6016   0.01127   0.00358   0.0751   0.0799   0.9338 123.8538 276.2288
   9.352   0.6106   0.01135   0.00362   0.0752   0.0778   0.9341 124.2228 276.2879
   9.437   0.6195   0.01143   0.00366   0.0752   0.0756   0.9344 124.6206 276.3557
   9.523   0.6282   0.01153   0.00371   0.0753   0.0735   0.9348 124.9921 276.4331
   9.608   0.6372   0.01161   0.00375   0.0754   0.0717   0.9352 125.3339 276.5171
   9.694   0.6461   0.01170   0.00380   0.0755   0.0698   0.9357 125.6940 276.6057
   9.779   0.6550   0.01180   0.00385   0.0755   0.0680   0.9362 126.0329 276.6943
   9.864   0.6643   0.01187   0.00388   0.0755   0.0662   0.9366 126.3759 276.7745
   9.950   0.6736   0.01196   0.00393   0.0754   0.0643   0.9370 126.7440 276.8461
  10.035   0.6828   0.01206   0.00397   0.0754   0.0625   0.9373 127.0806 276.9124
  10.121   0.6923   0.01214   0.00401   0.0753   0.0608   0.9376 127.4268 276.9697
  10.206   0.7015   0.01223   0.00405   0.0752   0.0591   0.9378 127.7786 277.0110
  10.291   0.7104   0.01233   0.00410   0.0752   0.0575   0.9379 128.0978 277.0349
  10.377   0.7195   0.01242   0.00415   0.0752   0.0559   0.9380 128.4225 277.0559
  10.462   0.7285   0.01252   0.00420   0.0752   0.0544   0.9381 128.7537 277.0779
  10.548   0.7373   0.01263   0.00426   0.0752   0.0529   0.9383 129.0658 277.1012
  10.633   0.7465   0.01271   0.00431   0.0752   0.0514   0.9384 129.3846 277.1245
  10.719   0.7554   0.01282   0.00436   0.0752   0.0499   0.9385 129.7199 277.1495
  10.804   0.7642   0.01294   0.00443   0.0752   0.0484   0.9386 130.0303 277.1764
  10.889   0.7733   0.01302   0.00447   0.0752   0.0472   0.9388 130.3224 277.2015
  10.975   0.7822   0.01313   0.00453   0.0752   0.0458   0.9389 130.6249 277.2275
  11.060   0.7910   0.01325   0.00460   0.0752   0.0446   0.9390 130.9105 277.2549
  11.146   0.8000   0.01336   0.00466   0.0752   0.0435   0.9391 131.1605 277.2794
  11.231   0.8090   0.01346   0.00471   0.0752   0.0424   0.9393 131.4198 277.3050
  11.317   0.8179   0.01358   0.00478   0.0752   0.0413   0.9394 131.6761 277.3305
  11.402   0.8265   0.01372   0.00486   0.0752   0.0403   0.9395 131.9249 277.3582
  11.487   0.8355   0.01382   0.00492   0.0751   0.0394   0.9397 132.1430 277.3844
  11.573   0.8446   0.01392   0.00497   0.0751   0.0385   0.9398 132.3798 277.4108
  11.658   0.8534   0.01404   0.00504   0.0751   0.0375   0.9399 132.6223 277.4388
  11.744   0.8622   0.01417   0.00512   0.0751   0.0366   0.9401 132.8533 277.4688
  11.829   0.8709   0.01431   0.00519   0.0751   0.0357   0.9402 133.0619 277.4986
  11.915   0.8799   0.01441   0.00525   0.0750   0.0350   0.9404 133.2557 277.5283
  12.000   0.8888   0.01453   0.00532   0.0750   0.0342   0.9405 133.4559 277.5587
