  
       XFOIL         Version 6.99
  
 Calculated polar for: Repaneled_Airfoil                               
  
 1 1 Reynolds number fixed          Mach number fixed         
  
 xtrf =   1.000 (top)        1.000 (bottom)  
 Mach =   0.000     Re =     1.000 e 6     Ncrit =   9.000  9.000
  
   alpha    CL        CD       CDp       CM     Top_Xtr  Bot_Xtr  Top_Itr  Bot_Itr
  ------ -------- --------- --------- -------- -------- -------- -------- --------
  -5.000  -0.7646   0.05057   0.04086  -0.0371   0.5885   0.0001  68.0422 152.9829
  -4.915  -0.7651   0.04873   0.03897  -0.0370   0.5862   0.0001  68.2736 152.9822
  -4.829  -0.7651   0.04692   0.03709  -0.0368   0.5837   0.0001  68.5110 152.9817
  -4.744  -0.7647   0.04514   0.03524  -0.0366   0.5814   0.0001  68.7415 152.9813
  -4.658  -0.7642   0.04331   0.03333  -0.0364   0.5792   0.0001  68.9519 152.9809
  -4.573  -0.7632   0.04151   0.03146  -0.0361   0.5770   0.0001  69.1691 152.9807
  -4.487  -0.7619   0.03970   0.02956  -0.0358   0.5747   0.0001  69.3963 152.9806
  -4.402  -0.7604   0.03787   0.02764  -0.0355   0.5724   0.0001  69.6175 152.9804
  -4.317  -0.7585   0.03609   0.02577  -0.0352   0.5703   0.0001  69.8292 152.9805
  -4.231  -0.7564   0.03428   0.02387  -0.0348   0.5683   0.0001  70.0229 152.9806
  -4.146  -0.7537   0.03252   0.02203  -0.0344   0.5661   0.0001  70.2338 152.9810
  -4.060  -0.7507   0.03078   0.02022  -0.0341   0.5640   0.0001  70.4482 152.9816
  -3.975  -0.7473   0.02909   0.01846  -0.0337   0.5618   0.0001  70.6577 152.9824
  -3.889  -0.7431   0.02753   0.01683  -0.0333   0.5597   0.0001  70.8596 152.9837
  -3.804  -0.7383   0.02606   0.01532  -0.0330   0.5577   0.0001  71.0540 152.9854
  -3.719  -0.7327   0.02477   0.01401  -0.0328   0.5555   0.0001  71.2751 152.9877
  -3.633  -0.7263   0.02369   0.01293  -0.0326   0.5531   0.0001  71.5084 152.9907
  -3.548  -0.7193   0.02275   0.01199  -0.0324   0.5507   0.0001  71.7401 152.9944
  -3.462  -0.7117   0.02204   0.01128  -0.0323   0.5484   0.0001  71.9619 152.9990
  -3.377  -0.7034   0.02156   0.01082  -0.0322   0.5460   0.0002  72.2024 153.2197
  -3.292  -0.6955   0.02083   0.01011  -0.0321   0.5435   0.0004  72.4468 153.8226
  -3.206  -0.6886   0.01941   0.00870  -0.0320   0.5412   0.0011  72.6636 154.8962
  -3.121  -0.6815   0.01777   0.00710  -0.0320   0.5391   0.0026  72.8654 156.6570
  -3.035  -0.6728   0.01727   0.00664  -0.0320   0.5369   0.0039  73.0844 157.6823
  -2.950  -0.6637   0.01703   0.00643  -0.0319   0.5344   0.0039  73.3266 157.7329
  -2.864  -0.6546   0.01681   0.00623  -0.0319   0.5319   0.0040  73.5681 157.7867
  -2.779  -0.6456   0.01660   0.00605  -0.0319   0.5295   0.0041  73.8010 157.8545
  -2.693  -0.6366   0.01640   0.00588  -0.0318   0.5273   0.0042  74.0179 157.9134
  -2.608  -0.6274   0.01621   0.00572  -0.0318   0.5248   0.0042  74.2576 157.9664
  -2.523  -0.6183   0.01601   0.00555  -0.0317   0.5223   0.0043  74.5032 158.0274
  -2.437  -0.6092   0.01580   0.00537  -0.0317   0.5199   0.0045  74.7403 158.1270
  -2.352  -0.6002   0.01559   0.00518  -0.0316   0.5176   0.0047  74.9606 158.2467
  -2.266  -0.5911   0.01538   0.00500  -0.0316   0.5152   0.0049  75.1907 158.3874
  -2.181  -0.5820   0.01516   0.00482  -0.0315   0.5127   0.0051  75.4328 158.5708
  -2.095  -0.5729   0.01497   0.00465  -0.0315   0.5103   0.0054  75.6698 158.7438
  -2.010  -0.5638   0.01479   0.00450  -0.0314   0.5080   0.0057  75.8901 158.9174
  -1.925  -0.5551   0.01442   0.00417  -0.0313   0.5059   0.0073  76.0946 159.8687
  -1.839  -0.5459   0.01425   0.00404  -0.0313   0.5036   0.0086  76.3209 160.5584
  -1.754  -0.5367   0.01413   0.00395  -0.0312   0.5012   0.0090  76.5486 160.7596
  -1.668  -0.5274   0.01402   0.00386  -0.0312   0.4990   0.0092  76.7671 160.8965
  -1.498  -0.5090   0.01377   0.00365  -0.0311   0.4948   0.0098  77.1772 161.1775
  -1.412  -0.4998   0.01362   0.00354  -0.0310   0.4925   0.0103  77.3978 161.3836
  -1.327  -0.4906   0.01348   0.00342  -0.0309   0.4903   0.0107  77.6153 161.6074
  -1.241  -0.4815   0.01335   0.00332  -0.0309   0.4881   0.0113  77.8217 161.8433
  -1.156  -0.4724   0.01321   0.00321  -0.0308   0.4862   0.0119  78.0129 162.1194
  -1.070  -0.4632   0.01306   0.00309  -0.0307   0.4841   0.0128  78.2180 162.5039
  -0.985  -0.4541   0.01291   0.00299  -0.0307   0.4819   0.0138  78.4293 162.9254
  -0.899  -0.4449   0.01279   0.00290  -0.0306   0.4798   0.0150  78.6350 163.3850
  -0.814  -0.4357   0.01270   0.00283  -0.0305   0.4778   0.0159  78.8313 163.7257
  -0.729  -0.4264   0.01263   0.00277  -0.0305   0.4759   0.0164  79.0149 163.9465
  -0.643  -0.4172   0.01251   0.00269  -0.0304   0.4738   0.0170  79.2124 164.1631
  -0.558  -0.4080   0.01240   0.00261  -0.0303   0.4717   0.0178  79.4178 164.4265
  -0.472  -0.3988   0.01230   0.00253  -0.0303   0.4696   0.0185  79.6214 164.6966
  -0.387  -0.3895   0.01221   0.00247  -0.0302   0.4676   0.0193  79.8164 164.9532
  -0.301  -0.3804   0.01211   0.00240  -0.0301   0.4658   0.0201  79.9970 165.2427
  -0.216  -0.3712   0.01201   0.00233  -0.0300   0.4638   0.0212  80.1899 165.5777
  -0.131  -0.3620   0.01192   0.00227  -0.0300   0.4617   0.0221  80.3926 165.9018
  -0.045  -0.3527   0.01183   0.00221  -0.0299   0.4597   0.0232  80.5947 166.2289
   0.040  -0.3435   0.01175   0.00216  -0.0298   0.4577   0.0243  80.7895 166.5747
   0.126  -0.3342   0.01170   0.00212  -0.0297   0.4558   0.0252  80.9748 166.8564
   0.211  -0.3249   0.01163   0.00207  -0.0297   0.4538   0.0260  81.1693 167.0804
   0.296  -0.3157   0.01153   0.00202  -0.0296   0.4516   0.0269  81.3780 167.3396
   0.382  -0.3064   0.01146   0.00197  -0.0295   0.4495   0.0278  81.5892 167.6042
   0.467  -0.2971   0.01140   0.00193  -0.0295   0.4474   0.0287  81.7940 167.8532
   0.553  -0.2879   0.01134   0.00189  -0.0294   0.4454   0.0295  81.9863 168.0832
   0.638  -0.2786   0.01126   0.00185  -0.0293   0.4434   0.0305  82.1872 168.3516
   0.724  -0.2693   0.01120   0.00181  -0.0292   0.4412   0.0315  82.4012 168.6241
   0.809  -0.2599   0.01114   0.00178  -0.0292   0.4390   0.0324  82.6146 168.8772
   0.894  -0.2506   0.01109   0.00174  -0.0291   0.4369   0.0333  82.8175 169.1116
   0.980  -0.2413   0.01103   0.00171  -0.0290   0.4350   0.0343  83.0049 169.3689
   1.065  -0.2319   0.01098   0.00168  -0.0290   0.4330   0.0353  83.2002 169.6322
   1.151  -0.2225   0.01093   0.00165  -0.0289   0.4310   0.0363  83.4041 169.8685
   1.236  -0.2130   0.01088   0.00162  -0.0289   0.4289   0.0371  83.6065 170.0710
   1.322  -0.2038   0.01083   0.00159  -0.0288   0.4269   0.0380  83.8016 170.2943
   1.407  -0.1945   0.01078   0.00157  -0.0287   0.4250   0.0389  83.9868 170.5130
   1.492  -0.1850   0.01073   0.00154  -0.0286   0.4231   0.0397  84.1790 170.7247
   1.578  -0.1755   0.01069   0.00151  -0.0286   0.4210   0.0405  84.3849 170.9166
   1.663  -0.1662   0.01064   0.00149  -0.0285   0.4189   0.0416  84.5921 171.1554
   1.749  -0.1568   0.01060   0.00148  -0.0285   0.4168   0.0432  84.7933 171.5283
   1.834  -0.1473   0.01060   0.00148  -0.0284   0.4149   0.0450  84.9853 171.9493
   1.920  -0.1378   0.01056   0.00149  -0.0284   0.4129   0.0469  85.1826 172.3751
   2.005  -0.1281   0.01055   0.00151  -0.0284   0.4107   0.0489  85.3977 172.8052
   2.091  -0.1185   0.01054   0.00151  -0.0284   0.4085   0.0505  85.6126 173.1561
   2.176  -0.1090   0.01052   0.00153  -0.0283   0.4065   0.0520  85.8172 173.4663
   2.261  -0.0994   0.01052   0.00153  -0.0283   0.4046   0.0532  86.0067 173.7206
   2.347  -0.0898   0.01049   0.00150  -0.0283   0.4026   0.0540  86.1977 173.9026
   2.432  -0.0803   0.01044   0.00147  -0.0282   0.4006   0.0549  86.3964 174.0770
   2.518  -0.0709   0.01039   0.00146  -0.0281   0.3987   0.0558  86.5939 174.2671
   2.603  -0.0614   0.01037   0.00145  -0.0281   0.3967   0.0567  86.7857 174.4501
   2.688  -0.0519   0.01035   0.00144  -0.0280   0.3949   0.0577  86.9674 174.6413
   2.774  -0.0423   0.01033   0.00142  -0.0280   0.3931   0.0586  87.1476 174.8351
   2.859  -0.0326   0.01031   0.00140  -0.0280   0.3911   0.0594  87.3409 174.9994
   2.945  -0.0233   0.01025   0.00139  -0.0279   0.3892   0.0605  87.5341 175.2012
   3.030  -0.0137   0.01023   0.00138  -0.0278   0.3873   0.0614  87.7244 175.3842
   3.116  -0.0042   0.01022   0.00137  -0.0278   0.3855   0.0624  87.9054 175.5728
   3.201   0.0054   0.01020   0.00136  -0.0277   0.3837   0.0634  88.0789 175.7713
   3.286   0.0151   0.01019   0.00134  -0.0277   0.3819   0.0644  88.2652 175.9573
   3.372   0.0246   0.01014   0.00133  -0.0277   0.3800   0.0655  88.4570 176.1614
   3.457   0.0342   0.01011   0.00133  -0.0276   0.3781   0.0665  88.6480 176.3528
   3.543   0.0437   0.01010   0.00132  -0.0276   0.3762   0.0675  88.8310 176.5419
   3.628   0.0533   0.01010   0.00131  -0.0275   0.3745   0.0685  89.0040 176.7333
   3.714   0.0630   0.01008   0.00129  -0.0275   0.3728   0.0695  89.1760 176.9135
   3.799   0.0726   0.01005   0.00127  -0.0275   0.3710   0.0705  89.3572 177.0930
   3.884   0.0822   0.01002   0.00128  -0.0274   0.3692   0.0715  89.5414 177.2785
   3.970   0.0918   0.01001   0.00128  -0.0274   0.3674   0.0725  89.7235 177.4637
   4.055   0.1014   0.01001   0.00127  -0.0273   0.3656   0.0736  89.8994 177.6615
   4.141   0.1111   0.01001   0.00126  -0.0273   0.3640   0.0747  90.0680 177.8593
   4.226   0.1208   0.01000   0.00125  -0.0273   0.3622   0.0757  90.2432 178.0359
   4.312   0.1304   0.00996   0.00125  -0.0272   0.3604   0.0768  90.4248 178.2285
   4.397   0.1400   0.00995   0.00125  -0.0272   0.3587   0.0778  90.6060 178.4065
   4.482   0.1497   0.00995   0.00125  -0.0272   0.3569   0.0789  90.7798 178.5929
   4.568   0.1593   0.00996   0.00124  -0.0271   0.3553   0.0800  90.9456 178.7807
   4.653   0.1691   0.00996   0.00123  -0.0271   0.3538   0.0810  91.1022 178.9501
   4.739   0.1787   0.00992   0.00122  -0.0271   0.3522   0.0820  91.2657 179.1275
   4.824   0.1883   0.00990   0.00122  -0.0270   0.3505   0.0830  91.4329 179.3018
   4.910   0.1980   0.00990   0.00122  -0.0270   0.3489   0.0841  91.5967 179.4802
   4.995   0.2077   0.00990   0.00122  -0.0270   0.3474   0.0852  91.7522 179.6699
   5.080   0.2174   0.00991   0.00121  -0.0269   0.3459   0.0863  91.9004 179.8611
   5.166   0.2271   0.00992   0.00120  -0.0269   0.3446   0.0874  92.0398 180.0386
   5.251   0.2368   0.00989   0.00121  -0.0269   0.3432   0.0886  92.1780 180.2324
   5.337   0.2465   0.00989   0.00122  -0.0269   0.3418   0.0897  92.3224 180.4128
   5.422   0.2563   0.00989   0.00123  -0.0268   0.3404   0.0909  92.4684 180.6030
   5.508   0.2660   0.00990   0.00123  -0.0268   0.3390   0.0921  92.6123 180.7964
   5.593   0.2757   0.00991   0.00122  -0.0268   0.3376   0.0931  92.7521 180.9679
   5.678   0.2853   0.00990   0.00122  -0.0267   0.3363   0.0942  92.8868 181.1457
   5.764   0.2949   0.00990   0.00123  -0.0267   0.3350   0.0952  93.0197 181.3065
   5.849   0.3047   0.00989   0.00123  -0.0267   0.3338   0.0963  93.1446 181.4683
   5.935   0.3144   0.00989   0.00123  -0.0267   0.3325   0.0973  93.2802 181.6412
   6.020   0.3242   0.00989   0.00123  -0.0266   0.3312   0.0985  93.4194 181.8161
   6.106   0.3339   0.00990   0.00122  -0.0266   0.3298   0.0994  93.5569 181.9712
   6.191   0.3435   0.00989   0.00122  -0.0266   0.3285   0.1005  93.6888 182.1388
   6.276   0.3532   0.00989   0.00123  -0.0265   0.3273   0.1015  93.8152 182.2978
   6.362   0.3628   0.00991   0.00124  -0.0265   0.3261   0.1026  93.9384 182.4634
   6.447   0.3725   0.00992   0.00124  -0.0265   0.3251   0.1038  94.0499 182.6458
   6.533   0.3824   0.00992   0.00124  -0.0264   0.3240   0.1050  94.1568 182.8334
   6.618   0.3922   0.00993   0.00124  -0.0264   0.3229   0.1061  94.2695 182.9955
   6.704   0.4018   0.00991   0.00125  -0.0264   0.3218   0.1073  94.3851 183.1833
   6.789   0.4116   0.00992   0.00126  -0.0264   0.3207   0.1085  94.5003 183.3573
   6.874   0.4213   0.00993   0.00127  -0.0264   0.3196   0.1097  94.6127 183.5421
   6.960   0.4310   0.00995   0.00128  -0.0263   0.3186   0.1110  94.7212 183.7301
   7.045   0.4407   0.00997   0.00128  -0.0263   0.3176   0.1121  94.8267 183.8992
   7.131   0.4504   0.00998   0.00127  -0.0263   0.3166   0.1131  94.9320 184.0482
   7.216   0.4600   0.00998   0.00128  -0.0262   0.3156   0.1142  95.0311 184.2055
   7.301   0.4697   0.00998   0.00129  -0.0262   0.3148   0.1152  95.1217 184.3542
   7.387   0.4795   0.00998   0.00130  -0.0262   0.3139   0.1163  95.2176 184.5131
   7.472   0.4893   0.00999   0.00130  -0.0262   0.3129   0.1174  95.3164 184.6817
   7.558   0.4990   0.01000   0.00130  -0.0261   0.3120   0.1186  95.4164 184.8489
   7.643   0.5088   0.01002   0.00130  -0.0261   0.3110   0.1196  95.5161 184.9937
   7.729   0.5184   0.01001   0.00131  -0.0261   0.3101   0.1207  95.6146 185.1592
   7.814   0.5281   0.01002   0.00131  -0.0260   0.3091   0.1218  95.7127 185.3146
   7.899   0.5377   0.01005   0.00132  -0.0260   0.3082   0.1230  95.8110 185.4877
   7.985   0.5473   0.01008   0.00133  -0.0260   0.3072   0.1244  95.9126 185.6785
   8.070   0.5569   0.01011   0.00134  -0.0259   0.3063   0.1257  96.0145 185.8679
   8.156   0.5667   0.01011   0.00134  -0.0259   0.3055   0.1269  96.0962 186.0364
   8.241   0.5765   0.01010   0.00135  -0.0259   0.3047   0.1282  96.1848 186.2159
   8.327   0.5862   0.01011   0.00136  -0.0259   0.3038   0.1294  96.2769 186.3822
   8.412   0.5960   0.01012   0.00137  -0.0258   0.3029   0.1306  96.3700 186.5573
   8.498   0.6057   0.01013   0.00137  -0.0258   0.3020   0.1319  96.4628 186.7434
   8.583   0.6154   0.01015   0.00137  -0.0258   0.3012   0.1332  96.5535 186.9218
   8.668   0.6250   0.01017   0.00138  -0.0257   0.3003   0.1345  96.6406 187.0953
   8.754   0.6346   0.01018   0.00139  -0.0257   0.2996   0.1358  96.7245 187.2692
   8.839   0.6442   0.01020   0.00140  -0.0257   0.2988   0.1370  96.8070 187.4378
   8.925   0.6538   0.01023   0.00141  -0.0256   0.2980   0.1383  96.8915 187.6151
   9.010   0.6633   0.01027   0.00142  -0.0256   0.2971   0.1396  96.9810 187.7959
   9.095   0.6730   0.01029   0.00142  -0.0255   0.2965   0.1408  97.0489 187.9642
   9.181   0.6828   0.01029   0.00143  -0.0255   0.2958   0.1422  97.1175 188.1448
   9.266   0.6925   0.01029   0.00144  -0.0255   0.2952   0.1435  97.1906 188.3264
   9.352   0.7022   0.01030   0.00145  -0.0254   0.2945   0.1450  97.2667 188.5184
   9.437   0.7119   0.01032   0.00145  -0.0254   0.2937   0.1465  97.3439 188.7286
   9.523   0.7216   0.01033   0.00146  -0.0254   0.2930   0.1481  97.4212 188.9398
   9.608   0.7313   0.01034   0.00147  -0.0254   0.2923   0.1499  97.4979 189.1694
   9.694   0.7409   0.01036   0.00148  -0.0253   0.2916   0.1517  97.5745 189.4065
   9.779   0.7506   0.01038   0.00149  -0.0253   0.2909   0.1535  97.6498 189.6480
   9.864   0.7602   0.01040   0.00149  -0.0252   0.2902   0.1553  97.7251 189.8812
   9.950   0.7697   0.01043   0.00150  -0.0252   0.2894   0.1570  97.8016 190.1034
  10.035   0.7792   0.01046   0.00152  -0.0251   0.2887   0.1589  97.8816 190.3463
  10.121   0.7887   0.01050   0.00153  -0.0251   0.2879   0.1609  97.9678 190.6041
  10.206   0.7983   0.01053   0.00154  -0.0250   0.2872   0.1630  98.0390 190.8825
  10.291   0.8080   0.01053   0.00155  -0.0250   0.2866   0.1654  98.1056 191.1839
  10.377   0.8177   0.01054   0.00156  -0.0250   0.2859   0.1682  98.1762 191.5350
  10.462   0.8274   0.01056   0.00157  -0.0249   0.2853   0.1712  98.2485 191.9198
  10.548   0.8370   0.01057   0.00158  -0.0249   0.2846   0.1746  98.3220 192.3498
  10.633   0.8467   0.01058   0.00160  -0.0249   0.2839   0.1790  98.3954 192.8903
  10.719   0.8563   0.01059   0.00161  -0.0248   0.2832   0.1853  98.4675 193.6709
  10.804   0.8659   0.01059   0.00162  -0.0248   0.2826   0.2008  98.5385 195.5396
  10.889   0.8731   0.00958   0.00163  -0.0250   0.2820   0.7000  98.5989 245.9563
  10.975   0.8825   0.00960   0.00168  -0.0249   0.2814   0.7194  98.6666 247.9804
  11.060   0.8919   0.00964   0.00171  -0.0248   0.2808   0.7303  98.7342 249.1267
  11.146   0.9013   0.00969   0.00175  -0.0247   0.2801   0.7382  98.8028 249.9762
  11.231   0.9106   0.00974   0.00178  -0.0246   0.2795   0.7446  98.8741 250.6663
  11.317   0.9199   0.00981   0.00182  -0.0245   0.2788   0.7500  98.9508 251.2502
  11.402   0.9293   0.00986   0.00185  -0.0244   0.2781   0.7545  99.0191 251.7449
  11.487   0.9389   0.00989   0.00188  -0.0244   0.2777   0.7582  99.0710 252.1509
  11.573   0.9484   0.00992   0.00190  -0.0243   0.2771   0.7617  99.1282 252.5430
  11.658   0.9581   0.00995   0.00192  -0.0242   0.2765   0.7648  99.1940 252.8829
  11.744   0.9677   0.00998   0.00194  -0.0242   0.2758   0.7671  99.2701 253.1472
  11.829   0.9772   0.01001   0.00196  -0.0241   0.2749   0.7694  99.3666 253.4056
  11.915   0.9869   0.01003   0.00196  -0.0241   0.2736   0.7718  99.5085 253.6700
  12.000   0.9965   0.01006   0.00195  -0.0240   0.2719   0.7741  99.6930 253.9323
