  
       XFOIL         Version 6.99
  
 Calculated polar for: Repaneled_Airfoil                               
  
 1 1 Reynolds number fixed          Mach number fixed         
  
 xtrf =   1.000 (top)        1.000 (bottom)  
 Mach =   0.000     Re =     1.000 e 6     Ncrit =   9.000  9.000
  
   alpha    CL        CD       CDp       CM     Top_Xtr  Bot_Xtr  Top_Itr  Bot_Itr
  ------ -------- --------- --------- -------- -------- -------- -------- --------
  -5.000  -0.5596   0.01081   0.00241  -0.0134   0.7983   0.0371  45.5322 169.6091
  -4.915  -0.5502   0.01073   0.00236  -0.0133   0.7971   0.0380  45.6700 169.8405
  -4.829  -0.5407   0.01066   0.00231  -0.0132   0.7960   0.0389  45.7968 170.0512
  -4.744  -0.5314   0.01057   0.00226  -0.0131   0.7951   0.0399  45.9127 170.3001
  -4.658  -0.5220   0.01049   0.00220  -0.0129   0.7940   0.0410  46.0365 170.5657
  -4.573  -0.5124   0.01042   0.00216  -0.0129   0.7924   0.0421  46.2306 170.8385
  -4.487  -0.5028   0.01034   0.00212  -0.0128   0.7908   0.0433  46.4154 171.1034
  -4.402  -0.4934   0.01025   0.00207  -0.0126   0.7893   0.0446  46.5899 171.4096
  -4.317  -0.4839   0.01017   0.00202  -0.0125   0.7879   0.0461  46.7515 171.7592
  -4.231  -0.4744   0.01010   0.00197  -0.0124   0.7867   0.0478  46.8985 172.1341
  -4.146  -0.4650   0.01001   0.00192  -0.0123   0.7853   0.0499  47.0610 172.5971
  -4.060  -0.4553   0.00994   0.00188  -0.0123   0.7832   0.0520  47.3057 173.0656
  -3.975  -0.4459   0.00984   0.00183  -0.0122   0.7812   0.0545  47.5316 173.5893
  -3.889  -0.4364   0.00976   0.00179  -0.0121   0.7795   0.0570  47.7338 174.1179
  -3.804  -0.4269   0.00967   0.00174  -0.0120   0.7780   0.0599  47.9086 174.7013
  -3.719  -0.4174   0.00959   0.00170  -0.0119   0.7762   0.0627  48.1144 175.2658
  -3.633  -0.4078   0.00951   0.00166  -0.0118   0.7739   0.0658  48.3805 175.8731
  -3.548  -0.3983   0.00942   0.00161  -0.0117   0.7718   0.0688  48.6196 176.4355
  -3.377  -0.3793   0.00926   0.00152  -0.0115   0.7684   0.0749  49.0100 177.5627
  -3.292  -0.3697   0.00919   0.00148  -0.0115   0.7657   0.0778  49.3115 178.0811
  -3.206  -0.3601   0.00911   0.00144  -0.0114   0.7632   0.0808  49.5888 178.6188
  -3.121  -0.3505   0.00904   0.00139  -0.0113   0.7611   0.0839  49.8333 179.1494
  -3.035  -0.3410   0.00896   0.00135  -0.0113   0.7588   0.0873  50.0823 179.7370
  -2.950  -0.3314   0.00888   0.00131  -0.0112   0.7557   0.0910  50.4275 180.3444
  -2.779  -0.3123   0.00873   0.00122  -0.0111   0.7503   0.0994  51.0299 181.7193
  -2.693  -0.3028   0.00865   0.00118  -0.0110   0.7470   0.1040  51.3917 182.4398
  -2.608  -0.2933   0.00857   0.00114  -0.0109   0.7439   0.1090  51.7369 183.2138
  -2.523  -0.2838   0.00850   0.00109  -0.0108   0.7409   0.1146  52.0620 184.0624
  -2.437  -0.2743   0.00842   0.00105  -0.0108   0.7371   0.1207  52.4744 184.9677
  -2.352  -0.2649   0.00834   0.00100  -0.0107   0.7336   0.1272  52.8573 185.9126
  -2.181  -0.2462   0.00816   0.00091  -0.0105   0.7260   0.1442  53.6803 188.2750
  -2.095  -0.2370   0.00805   0.00086  -0.0104   0.7224   0.1559  54.0580 189.8340
  -2.010  -0.2278   0.00794   0.00082  -0.0103   0.7186   0.1697  54.4620 191.6156
  -1.925  -0.2186   0.00783   0.00078  -0.0102   0.7152   0.1862  54.8306 193.6772
  -1.839  -0.2093   0.00775   0.00077  -0.0102   0.7118   0.2018  55.1829 195.5623
  -1.754  -0.1998   0.00770   0.00076  -0.0101   0.7083   0.2138  55.5599 196.9742
  -1.668  -0.1902   0.00766   0.00076  -0.0101   0.7051   0.2229  55.8971 198.0233
  -1.583  -0.1806   0.00764   0.00076  -0.0100   0.7018   0.2306  56.2334 198.9034
  -1.498  -0.1709   0.00762   0.00076  -0.0100   0.6985   0.2365  56.5807 199.5667
  -1.412  -0.1612   0.00761   0.00075  -0.0100   0.6955   0.2416  56.8969 200.1315
  -1.327  -0.1515   0.00759   0.00075  -0.0100   0.6925   0.2463  57.2064 200.6515
  -1.241  -0.1417   0.00759   0.00075  -0.0100   0.6894   0.2503  57.5246 201.0932
  -1.156  -0.1320   0.00757   0.00075  -0.0099   0.6866   0.2542  57.8193 201.5224
  -1.070  -0.1222   0.00758   0.00075  -0.0099   0.6839   0.2579  58.0946 201.9247
  -0.985  -0.1124   0.00756   0.00075  -0.0099   0.6809   0.2609  58.3978 202.2545
  -0.899  -0.1027   0.00755   0.00075  -0.0099   0.6781   0.2638  58.6917 202.5728
  -0.814  -0.0929   0.00756   0.00075  -0.0099   0.6755   0.2666  58.9592 202.8715
  -0.729  -0.0831   0.00755   0.00075  -0.0099   0.6727   0.2690  59.2459 203.1287
  -0.643  -0.0734   0.00754   0.00075  -0.0099   0.6697   0.2714  59.5418 203.3930
  -0.558  -0.0636   0.00753   0.00074  -0.0099   0.6670   0.2740  59.8202 203.6629
  -0.472  -0.0538   0.00754   0.00074  -0.0099   0.6644   0.2764  60.0814 203.9214
  -0.387  -0.0440   0.00753   0.00074  -0.0100   0.6616   0.2786  60.3710 204.1572
  -0.301  -0.0343   0.00751   0.00074  -0.0100   0.6588   0.2809  60.6507 204.4018
  -0.216  -0.0246   0.00752   0.00073  -0.0100   0.6563   0.2832  60.9046 204.6430
  -0.131  -0.0147   0.00752   0.00073  -0.0100   0.6538   0.2854  61.1579 204.8751
  -0.045  -0.0049   0.00751   0.00073  -0.0100   0.6511   0.2874  61.4256 205.0840
   0.040   0.0048   0.00749   0.00073  -0.0100   0.6485   0.2894  61.6856 205.2945
   0.126   0.0145   0.00749   0.00072  -0.0100   0.6461   0.2915  61.9317 205.5153
   0.211   0.0243   0.00749   0.00072  -0.0100   0.6433   0.2936  62.2019 205.7358
   0.296   0.0341   0.00749   0.00072  -0.0101   0.6404   0.2955  62.4940 205.9386
   0.382   0.0438   0.00748   0.00071  -0.0101   0.6376   0.2973  62.7743 206.1276
   0.467   0.0535   0.00747   0.00071  -0.0101   0.6350   0.2993  63.0295 206.3310
   0.553   0.0633   0.00746   0.00071  -0.0101   0.6321   0.3014  63.3201 206.5526
   0.638   0.0731   0.00746   0.00070  -0.0102   0.6293   0.3035  63.6029 206.7760
   0.724   0.0829   0.00747   0.00070  -0.0102   0.6267   0.3055  63.8570 206.9771
   0.894   0.1023   0.00744   0.00069  -0.0102   0.6214   0.3097  64.3752 207.4163
   0.980   0.1120   0.00743   0.00069  -0.0103   0.6188   0.3121  64.6386 207.6626
   1.065   0.1218   0.00744   0.00069  -0.0103   0.6163   0.3145  64.8793 207.9051
   1.151   0.1315   0.00743   0.00068  -0.0103   0.6139   0.3167  65.1132 208.1354
   1.236   0.1412   0.00741   0.00069  -0.0104   0.6113   0.3193  65.3694 208.3999
   1.322   0.1509   0.00741   0.00068  -0.0104   0.6088   0.3221  65.6206 208.6890
   1.407   0.1607   0.00741   0.00068  -0.0104   0.6063   0.3251  65.8583 208.9882
   1.492   0.1703   0.00740   0.00068  -0.0105   0.6040   0.3282  66.0891 209.3012
   1.578   0.1800   0.00738   0.00068  -0.0105   0.6013   0.3315  66.3526 209.6448
   1.663   0.1898   0.00738   0.00068  -0.0106   0.5986   0.3348  66.6159 209.9794
   1.749   0.1994   0.00737   0.00068  -0.0106   0.5961   0.3380  66.8591 210.3001
   1.834   0.2091   0.00737   0.00068  -0.0106   0.5937   0.3414  67.0932 210.6360
   1.920   0.2188   0.00736   0.00067  -0.0107   0.5910   0.3446  67.3516 210.9650
   2.005   0.2285   0.00734   0.00067  -0.0107   0.5885   0.3479  67.6024 211.2937
   2.091   0.2381   0.00734   0.00067  -0.0107   0.5861   0.3517  67.8350 211.6701
   2.176   0.2477   0.00734   0.00067  -0.0108   0.5838   0.3557  68.0530 212.0693
   2.261   0.2574   0.00732   0.00067  -0.0108   0.5812   0.3603  68.3073 212.5300
   2.432   0.2766   0.00729   0.00067  -0.0109   0.5759   0.3718  68.8174 213.6628
   2.518   0.2861   0.00728   0.00067  -0.0109   0.5735   0.3789  69.0516 214.3682
   2.603   0.2956   0.00725   0.00067  -0.0110   0.5708   0.3877  69.3148 215.2274
   2.688   0.3051   0.00722   0.00067  -0.0110   0.5681   0.3984  69.5722 216.2712
   2.774   0.3144   0.00719   0.00067  -0.0110   0.5657   0.4121  69.8048 217.6056
   2.859   0.3235   0.00715   0.00068  -0.0109   0.5635   0.4302  70.0146 219.3519
   2.945   0.3325   0.00706   0.00068  -0.0109   0.5610   0.4560  70.2578 221.8388
   3.030   0.3409   0.00695   0.00068  -0.0107   0.5584   0.4949  70.5108 225.5530
   3.116   0.3480   0.00675   0.00068  -0.0103   0.5559   0.5623  70.7535 232.0044
   3.201   0.3501   0.00628   0.00066  -0.0089   0.5538   0.7108  70.9543 246.8155
   3.286   0.3495   0.00573   0.00078  -0.0063   0.5518   0.9114  71.1482 272.1759
   3.372   0.3588   0.00578   0.00084  -0.0062   0.5488   0.9295  71.4320 275.3735
   3.457   0.3677   0.00582   0.00088  -0.0060   0.5460   0.9374  71.7030 276.8927
   3.543   0.3766   0.00588   0.00091  -0.0059   0.5435   0.9431  71.9398 278.0384
   3.628   0.3856   0.00592   0.00095  -0.0057   0.5412   0.9477  72.1670 279.0003
   3.714   0.3951   0.00596   0.00099  -0.0056   0.5386   0.9513  72.4136 279.7909
   3.799   0.4045   0.00602   0.00102  -0.0056   0.5359   0.9544  72.6736 280.4898
   3.884   0.4134   0.00607   0.00105  -0.0054   0.5332   0.9574  72.9290 281.1801
   3.970   0.4227   0.00612   0.00109  -0.0053   0.5303   0.9601  73.2079 281.8204
   4.055   0.4327   0.00618   0.00113  -0.0054   0.5270   0.9623  73.5201 282.3650
   4.141   0.4413   0.00623   0.00116  -0.0052   0.5240   0.9648  73.8073 283.0015
   4.226   0.4526   0.00630   0.00121  -0.0056   0.5211   0.9663  74.0902 283.4088
   4.312   0.4616   0.00634   0.00124  -0.0054   0.5181   0.9685  74.3772 283.9885
   4.397   0.4738   0.00642   0.00128  -0.0060   0.5146   0.9697  74.7111 284.3181
   4.482   0.4846   0.00649   0.00132  -0.0063   0.5111   0.9712  75.0433 284.7418
   4.568   0.4954   0.00654   0.00135  -0.0066   0.5069   0.9726  75.4429 285.1361
   4.653   0.5082   0.00662   0.00139  -0.0074   0.5025   0.9734  75.8702 285.3763
   4.739   0.5202   0.00668   0.00143  -0.0080   0.4984   0.9744  76.2558 285.6867
   4.824   0.5307   0.00673   0.00145  -0.0082   0.4941   0.9757  76.6680 286.0697
   4.910   0.5450   0.00681   0.00150  -0.0093   0.4892   0.9762  77.1381 286.2335
   4.995   0.5599   0.00689   0.00154  -0.0106   0.4833   0.9767  77.7053 286.3949
   5.080   0.5742   0.00697   0.00157  -0.0117   0.4777   0.9774  78.2408 286.6093
   5.166   0.5843   0.00703   0.00160  -0.0119   0.4725   0.9786  78.7405 287.0199
   5.251   0.6003   0.00712   0.00164  -0.0135   0.4662   0.9790  79.3453 287.1465
   5.337   0.6154   0.00721   0.00168  -0.0148   0.4591   0.9795  80.0236 287.3108
   5.422   0.6296   0.00729   0.00172  -0.0159   0.4511   0.9801  80.7867 287.5263
   5.508   0.6411   0.00737   0.00175  -0.0165   0.4434   0.9811  81.5298 287.8691
   5.593   0.6542   0.00747   0.00178  -0.0174   0.4345   0.9818  82.3882 288.1130
   5.678   0.6684   0.00757   0.00182  -0.0186   0.4238   0.9823  83.4218 288.2754
   5.764   0.6817   0.00768   0.00186  -0.0196   0.4128   0.9828  84.4876 288.4761
   5.849   0.6937   0.00780   0.00190  -0.0202   0.4002   0.9836  85.7105 288.7490
   5.935   0.7040   0.00794   0.00194  -0.0206   0.3846   0.9844  87.2436 289.0519
   6.020   0.7169   0.00815   0.00200  -0.0216   0.3594   0.9847  89.7280 289.1929
   6.106   0.7283   0.00848   0.00211  -0.0224   0.3212   0.9851  93.5840 289.3528
   6.191   0.7371   0.00912   0.00235  -0.0229   0.2501   0.9856 101.1152 289.5476
   6.276   0.7467   0.00944   0.00249  -0.0233   0.2255   0.9862 103.8713 289.8022
   6.362   0.7569   0.00962   0.00258  -0.0237   0.2142   0.9869 105.1772 290.0590
   6.447   0.7696   0.00978   0.00266  -0.0246   0.2053   0.9872 106.2185 290.2037
   6.533   0.7818   0.00992   0.00273  -0.0255   0.1983   0.9876 107.0535 290.3700
   6.618   0.7934   0.01003   0.00278  -0.0261   0.1923   0.9880 107.7737 290.5539
   6.704   0.8041   0.01013   0.00283  -0.0266   0.1873   0.9885 108.3941 290.7722
   6.874   0.8261   0.01033   0.00292  -0.0276   0.1776   0.9893 109.5830 291.1484
   6.960   0.8380   0.01043   0.00297  -0.0283   0.1731   0.9896 110.1481 291.2957
   7.045   0.8497   0.01051   0.00301  -0.0290   0.1687   0.9900 110.7069 291.4753
   7.131   0.8607   0.01060   0.00305  -0.0295   0.1647   0.9904 111.2197 291.6779
   7.216   0.8708   0.01069   0.00309  -0.0298   0.1605   0.9909 111.7694 291.9001
   7.301   0.8814   0.01078   0.00312  -0.0303   0.1562   0.9912 112.3254 292.0717
   7.472   0.9041   0.01097   0.00320  -0.0315   0.1462   0.9918 113.6694 292.3674
   7.558   0.9152   0.01107   0.00324  -0.0321   0.1411   0.9922 114.3586 292.5655
   7.643   0.9258   0.01118   0.00328  -0.0325   0.1358   0.9926 115.0928 292.8000
   7.729   0.9365   0.01129   0.00333  -0.0330   0.1301   0.9931 115.8931 293.0557
   7.814   0.9485   0.01141   0.00338  -0.0338   0.1245   0.9934 116.7020 293.2557
   7.899   0.9597   0.01152   0.00343  -0.0344   0.1191   0.9937 117.4847 293.4618
   7.985   0.9700   0.01165   0.00348  -0.0349   0.1137   0.9941 118.2829 293.6636
   8.070   0.9798   0.01178   0.00354  -0.0352   0.1084   0.9944 119.0880 293.8716
   8.156   0.9899   0.01191   0.00359  -0.0356   0.1036   0.9947 119.8416 294.0744
   8.241   1.0009   0.01203   0.00365  -0.0362   0.0989   0.9950 120.5788 294.2682
   8.327   1.0117   0.01216   0.00371  -0.0367   0.0944   0.9953 121.3187 294.4917
   8.412   1.0221   0.01230   0.00378  -0.0372   0.0899   0.9957 122.0570 294.7507
   8.498   1.0327   0.01243   0.00385  -0.0377   0.0858   0.9961 122.7489 295.0451
   8.583   1.0442   0.01257   0.00391  -0.0385   0.0818   0.9964 123.4277 295.3321
   8.668   1.0551   0.01271   0.00399  -0.0391   0.0780   0.9968 124.1041 295.6342
   8.754   1.0653   0.01285   0.00406  -0.0395   0.0743   0.9971 124.7659 295.9235
   8.839   1.0755   0.01298   0.00413  -0.0400   0.0711   0.9974 125.3613 296.1691
   8.925   1.0854   0.01314   0.00420  -0.0404   0.0680   0.9976 125.9463 296.4112
   9.010   1.0952   0.01326   0.00427  -0.0407   0.0651   0.9979 126.5065 296.6512
   9.095   1.1047   0.01341   0.00435  -0.0410   0.0622   0.9981 127.0645 296.8945
   9.181   1.1145   0.01354   0.00441  -0.0414   0.0594   0.9983 127.6148 297.1587
   9.266   1.1240   0.01370   0.00449  -0.0417   0.0570   0.9985 128.1199 297.4249
   9.352   1.1336   0.01383   0.00457  -0.0421   0.0547   0.9988 128.5998 297.7156
   9.437   1.1431   0.01400   0.00465  -0.0424   0.0526   0.9990 129.0424 298.0276
   9.523   1.1534   0.01412   0.00472  -0.0429   0.0505   0.9993 129.4818 298.4705
   9.608   1.1635   0.01428   0.00480  -0.0434   0.0485   0.9995 129.9179 298.9794
   9.694   1.1744   0.01441   0.00487  -0.0440   0.0468   0.9998 130.3113 299.8794
   9.779   1.1834   0.01455   0.00495  -0.0442   0.0452   1.0000 130.6811 301.0000
   9.864   1.1902   0.01472   0.00504  -0.0440   0.0438   1.0000 130.9967 301.0000
   9.950   1.1975   0.01484   0.00511  -0.0438   0.0426   1.0000 131.2731 301.0000
  10.035   1.2045   0.01498   0.00518  -0.0436   0.0414   1.0000 131.5626 301.0000
  10.121   1.2111   0.01514   0.00527  -0.0433   0.0403   1.0000 131.8357 301.0000
  10.206   1.2178   0.01530   0.00535  -0.0430   0.0393   1.0000 132.0837 301.0000
  10.291   1.2248   0.01542   0.00542  -0.0428   0.0383   1.0000 132.3321 301.0000
  10.377   1.2315   0.01556   0.00549  -0.0425   0.0372   1.0000 132.5951 301.0000
  10.462   1.2378   0.01572   0.00558  -0.0422   0.0362   1.0000 132.8465 301.0000
  10.548   1.2441   0.01588   0.00566  -0.0419   0.0353   1.0000 133.0749 301.0000
  10.633   1.2507   0.01601   0.00573  -0.0416   0.0345   1.0000 133.2967 301.0000
  10.719   1.2570   0.01616   0.00581  -0.0413   0.0336   1.0000 133.5269 301.0000
  10.804   1.2629   0.01632   0.00590  -0.0409   0.0328   1.0000 133.7490 301.0000
  10.889   1.2685   0.01651   0.00599  -0.0405   0.0320   1.0000 133.9665 301.0000
  10.975   1.2745   0.01665   0.00607  -0.0401   0.0313   1.0000 134.1476 301.0000
  11.060   1.2804   0.01679   0.00614  -0.0397   0.0306   1.0000 134.3389 301.0000
  11.146   1.2860   0.01695   0.00623  -0.0393   0.0299   1.0000 134.5306 301.0000
  11.231   1.2912   0.01712   0.00632  -0.0388   0.0293   1.0000 134.7140 301.0000
  11.317   1.2960   0.01731   0.00642  -0.0382   0.0287   1.0000 134.8903 301.0000
  11.402   1.3009   0.01749   0.00651  -0.0376   0.0281   1.0000 135.0497 301.0000
  11.487   1.3062   0.01762   0.00658  -0.0371   0.0276   1.0000 135.1955 301.0000
  11.573   1.3112   0.01777   0.00666  -0.0366   0.0271   1.0000 135.3541 301.0000
  11.658   1.3158   0.01793   0.00674  -0.0360   0.0265   1.0000 135.5107 301.0000
  11.744   1.3200   0.01811   0.00683  -0.0353   0.0260   1.0000 135.6582 301.0000
  11.829   1.3237   0.01829   0.00692  -0.0346   0.0256   1.0000 135.7941 301.0000
  11.915   1.3269   0.01849   0.00702  -0.0338   0.0252   1.0000 135.9203 301.0000
  12.000   1.3300   0.01868   0.00711  -0.0329   0.0248   1.0000 136.0313 301.0000
