  
       XFOIL         Version 6.99
  
 Calculated polar for: Repaneled_Airfoil                               
  
 1 1 Reynolds number fixed          Mach number fixed         
  
 xtrf =   1.000 (top)        1.000 (bottom)  
 Mach =   0.000     Re =     1.000 e 6     Ncrit =   9.000  9.000
  
   alpha    CL        CD       CDp       CM     Top_Xtr  Bot_Xtr  Top_Itr  Bot_Itr
  ------ -------- --------- --------- -------- -------- -------- -------- --------
  -5.000  -0.4639   0.01012   0.00240  -0.0661   0.9200   0.0299  28.4946 167.8298
  -4.915  -0.4547   0.01006   0.00234  -0.0660   0.9110   0.0304  30.0379 167.9887
  -4.829  -0.4458   0.00999   0.00227  -0.0659   0.9005   0.0311  31.7559 168.1765
  -4.744  -0.4370   0.00993   0.00221  -0.0657   0.8885   0.0319  33.6273 168.3733
  -4.658  -0.4283   0.00989   0.00215  -0.0655   0.8747   0.0326  35.6755 168.5751
  -4.573  -0.4199   0.00987   0.00209  -0.0652   0.8588   0.0333  37.9264 168.7732
  -4.487  -0.4115   0.00987   0.00204  -0.0649   0.8390   0.0340  40.5695 168.9564
  -4.402  -0.4037   0.00988   0.00198  -0.0645   0.8115   0.0348  44.0391 169.1443
  -4.317  -0.3964   0.00994   0.00192  -0.0640   0.7708   0.0356  48.8466 169.3503
  -4.231  -0.3892   0.01003   0.00188  -0.0635   0.7323   0.0364  53.1071 169.5671
  -4.146  -0.3808   0.01006   0.00185  -0.0633   0.7129   0.0373  55.1788 169.7929
  -4.060  -0.3720   0.01007   0.00182  -0.0632   0.7009   0.0381  56.4487 169.9944
  -3.975  -0.3631   0.01004   0.00178  -0.0631   0.6922   0.0391  57.3550 170.2305
  -3.889  -0.3541   0.01001   0.00175  -0.0630   0.6852   0.0401  58.0784 170.4817
  -3.804  -0.3449   0.00998   0.00172  -0.0630   0.6791   0.0412  58.7027 170.7420
  -3.719  -0.3356   0.00996   0.00169  -0.0629   0.6740   0.0422  59.2268 170.9852
  -3.633  -0.3264   0.00991   0.00165  -0.0629   0.6691   0.0434  59.7196 171.2589
  -3.548  -0.3171   0.00987   0.00162  -0.0628   0.6649   0.0447  60.1528 171.5595
  -3.462  -0.3077   0.00983   0.00159  -0.0628   0.6606   0.0460  60.5902 171.8636
  -3.292  -0.2890   0.00975   0.00153  -0.0628   0.6528   0.0494  61.3706 172.6209
  -3.206  -0.2796   0.00972   0.00151  -0.0628   0.6491   0.0513  61.7480 173.0500
  -3.121  -0.2704   0.00966   0.00148  -0.0628   0.6457   0.0536  62.0843 173.5299
  -2.950  -0.2515   0.00957   0.00144  -0.0627   0.6388   0.0584  62.7702 174.5193
  -2.779  -0.2326   0.00948   0.00139  -0.0627   0.6327   0.0632  63.3805 175.4767
  -2.693  -0.2231   0.00946   0.00137  -0.0627   0.6297   0.0655  63.6791 175.9266
  -2.608  -0.2138   0.00941   0.00134  -0.0627   0.6271   0.0676  63.9424 176.3223
  -2.523  -0.2042   0.00936   0.00132  -0.0627   0.6244   0.0697  64.2022 176.7122
  -2.437  -0.1947   0.00932   0.00129  -0.0627   0.6217   0.0714  64.4682 177.0466
  -2.352  -0.1852   0.00927   0.00126  -0.0627   0.6192   0.0734  64.7193 177.4070
  -2.266  -0.1757   0.00924   0.00124  -0.0627   0.6169   0.0755  64.9473 177.7906
  -2.181  -0.1662   0.00920   0.00122  -0.0627   0.6145   0.0776  65.1787 178.1547
  -2.095  -0.1566   0.00915   0.00119  -0.0627   0.6121   0.0799  65.4206 178.5553
  -2.010  -0.1470   0.00912   0.00117  -0.0627   0.6097   0.0821  65.6552 178.9537
  -1.925  -0.1376   0.00908   0.00115  -0.0627   0.6075   0.0844  65.8720 179.3462
  -1.839  -0.1281   0.00904   0.00113  -0.0627   0.6054   0.0869  66.0777 179.7688
  -1.754  -0.1184   0.00900   0.00110  -0.0627   0.6031   0.0893  66.3012 180.1721
  -1.668  -0.1089   0.00896   0.00108  -0.0627   0.6008   0.0920  66.5239 180.6118
  -1.583  -0.0993   0.00893   0.00107  -0.0627   0.5987   0.0946  66.7356 181.0448
  -1.498  -0.0898   0.00889   0.00105  -0.0627   0.5967   0.0974  66.9297 181.5024
  -1.412  -0.0802   0.00886   0.00103  -0.0627   0.5947   0.1003  67.1257 181.9649
  -1.327  -0.0706   0.00881   0.00101  -0.0627   0.5925   0.1032  67.3349 182.4085
  -1.241  -0.0610   0.00878   0.00099  -0.0627   0.5904   0.1061  67.5425 182.8612
  -1.156  -0.0514   0.00875   0.00098  -0.0627   0.5884   0.1089  67.7415 183.2912
  -1.070  -0.0419   0.00872   0.00096  -0.0627   0.5865   0.1119  67.9266 183.7548
  -0.985  -0.0323   0.00869   0.00094  -0.0627   0.5845   0.1149  68.1158 184.1957
  -0.899  -0.0226   0.00865   0.00093  -0.0627   0.5824   0.1182  68.3227 184.6850
  -0.814  -0.0130   0.00862   0.00091  -0.0627   0.5803   0.1214  68.5291 185.1533
  -0.729  -0.0035   0.00859   0.00090  -0.0627   0.5782   0.1249  68.7275 185.6615
  -0.643   0.0061   0.00856   0.00088  -0.0626   0.5763   0.1283  68.9124 186.1565
  -0.558   0.0157   0.00853   0.00086  -0.0626   0.5744   0.1322  69.0981 186.6995
  -0.472   0.0253   0.00849   0.00085  -0.0627   0.5723   0.1359  69.3027 187.2237
  -0.387   0.0350   0.00846   0.00083  -0.0627   0.5702   0.1401  69.5062 187.8064
  -0.301   0.0445   0.00842   0.00082  -0.0626   0.5682   0.1444  69.6990 188.3821
  -0.131   0.0636   0.00836   0.00079  -0.0626   0.5646   0.1541  70.0434 189.6781
  -0.045   0.0732   0.00832   0.00078  -0.0626   0.5627   0.1594  70.2285 190.3771
   0.040   0.0829   0.00828   0.00076  -0.0626   0.5608   0.1653  70.4140 191.1347
   0.126   0.0924   0.00824   0.00075  -0.0626   0.5589   0.1718  70.5929 191.9691
   0.211   0.1020   0.00821   0.00074  -0.0626   0.5572   0.1792  70.7610 192.8906
   0.296   0.1115   0.00817   0.00074  -0.0626   0.5556   0.1871  70.9161 193.8629
   0.382   0.1211   0.00814   0.00073  -0.0626   0.5540   0.1954  71.0691 194.8615
   0.467   0.1307   0.00810   0.00073  -0.0626   0.5523   0.2041  71.2381 195.9024
   0.553   0.1404   0.00807   0.00074  -0.0626   0.5505   0.2123  71.4097 196.8621
   0.638   0.1501   0.00805   0.00074  -0.0626   0.5487   0.2197  71.5764 197.7190
   0.724   0.1597   0.00804   0.00074  -0.0626   0.5471   0.2267  71.7349 198.5127
   0.809   0.1694   0.00803   0.00074  -0.0626   0.5456   0.2330  71.8837 199.2335
   0.894   0.1790   0.00803   0.00074  -0.0626   0.5441   0.2392  72.0268 199.9224
   0.980   0.1888   0.00800   0.00075  -0.0626   0.5424   0.2446  72.1859 200.5207
   1.065   0.1986   0.00799   0.00075  -0.0626   0.5407   0.2495  72.3492 201.0696
   1.151   0.2083   0.00798   0.00075  -0.0626   0.5390   0.2541  72.5102 201.5715
   1.236   0.2181   0.00798   0.00075  -0.0626   0.5374   0.2583  72.6646 202.0317
   1.322   0.2277   0.00797   0.00075  -0.0626   0.5359   0.2623  72.8102 202.4584
   1.407   0.2374   0.00798   0.00075  -0.0626   0.5345   0.2662  72.9480 202.8814
   1.492   0.2471   0.00797   0.00075  -0.0626   0.5330   0.2697  73.0911 203.2621
   1.578   0.2569   0.00796   0.00075  -0.0626   0.5314   0.2736  73.2457 203.6805
   1.663   0.2667   0.00795   0.00075  -0.0626   0.5298   0.2774  73.4022 204.0794
   1.749   0.2764   0.00794   0.00075  -0.0626   0.5282   0.2812  73.5552 204.4846
   1.834   0.2861   0.00794   0.00075  -0.0626   0.5266   0.2851  73.7020 204.8933
   1.920   0.2958   0.00794   0.00075  -0.0626   0.5252   0.2886  73.8420 205.2619
   2.005   0.3054   0.00794   0.00075  -0.0626   0.5238   0.2922  73.9767 205.6437
   2.176   0.3250   0.00791   0.00075  -0.0626   0.5206   0.2993  74.2778 206.3872
   2.261   0.3347   0.00790   0.00074  -0.0626   0.5190   0.3032  74.4347 206.7931
   2.347   0.3444   0.00790   0.00074  -0.0626   0.5174   0.3071  74.5881 207.1924
   2.432   0.3541   0.00789   0.00074  -0.0626   0.5159   0.3116  74.7346 207.6557
   2.518   0.3637   0.00789   0.00074  -0.0626   0.5144   0.3164  74.8736 208.1474
   2.603   0.3733   0.00789   0.00074  -0.0626   0.5130   0.3219  75.0077 208.7137
   2.688   0.3831   0.00786   0.00074  -0.0626   0.5115   0.3278  75.1538 209.3138
   2.774   0.3928   0.00784   0.00074  -0.0626   0.5099   0.3346  75.3052 209.9982
   2.859   0.4025   0.00782   0.00074  -0.0626   0.5084   0.3422  75.4551 210.7657
   2.945   0.4121   0.00779   0.00074  -0.0626   0.5069   0.3519  75.5995 211.7400
   3.030   0.4217   0.00776   0.00074  -0.0626   0.5054   0.3655  75.7367 213.0942
   3.116   0.4310   0.00770   0.00074  -0.0625   0.5041   0.3881  75.8658 215.3103
   3.201   0.4397   0.00749   0.00072  -0.0625   0.5028   0.4613  75.9884 222.3854
   3.286   0.4453   0.00679   0.00076  -0.0620   0.5016   0.7193  76.1079 247.7483
   3.372   0.4547   0.00676   0.00077  -0.0619   0.5001   0.7414  76.2488 250.1169
   3.457   0.4641   0.00673   0.00079  -0.0618   0.4986   0.7563  76.3950 251.7625
   3.543   0.4735   0.00671   0.00080  -0.0617   0.4970   0.7686  76.5457 253.1389
   3.628   0.4829   0.00670   0.00080  -0.0616   0.4954   0.7795  76.6948 254.3828
   3.714   0.4922   0.00669   0.00081  -0.0614   0.4939   0.7897  76.8397 255.5683
   3.799   0.5014   0.00670   0.00082  -0.0613   0.4924   0.7998  76.9829 256.7524
   3.884   0.5108   0.00668   0.00083  -0.0612   0.4908   0.8101  77.1388 257.9927
   3.970   0.5201   0.00665   0.00084  -0.0611   0.4891   0.8203  77.3050 259.2524
   4.055   0.5294   0.00664   0.00085  -0.0609   0.4874   0.8310  77.4703 260.5958
   4.226   0.5475   0.00662   0.00087  -0.0605   0.4842   0.8531  77.7750 263.4936
   4.312   0.5564   0.00662   0.00089  -0.0603   0.4827   0.8650  77.9138 265.1113
   4.397   0.5652   0.00662   0.00090  -0.0600   0.4813   0.8771  78.0506 266.8419
   4.482   0.5740   0.00660   0.00092  -0.0597   0.4798   0.8892  78.1945 268.6451
   4.568   0.5826   0.00659   0.00094  -0.0594   0.4783   0.9012  78.3408 270.5127
   4.653   0.5911   0.00659   0.00095  -0.0591   0.4768   0.9129  78.4856 272.4229
   4.739   0.5995   0.00659   0.00097  -0.0587   0.4753   0.9238  78.6230 274.3348
   4.824   0.6079   0.00660   0.00098  -0.0583   0.4740   0.9338  78.7505 276.1924
   4.910   0.6164   0.00662   0.00099  -0.0579   0.4727   0.9427  78.8743 277.9462
   4.995   0.6251   0.00665   0.00100  -0.0577   0.4714   0.9503  79.0036 279.5693
   5.080   0.6346   0.00666   0.00101  -0.0575   0.4698   0.9572  79.1508 281.1370
   5.166   0.6445   0.00666   0.00101  -0.0575   0.4681   0.9635  79.3145 282.6737
   5.251   0.6550   0.00668   0.00102  -0.0576   0.4664   0.9691  79.4859 284.1473
   5.337   0.6659   0.00670   0.00103  -0.0578   0.4645   0.9738  79.6600 285.5152
   5.422   0.6770   0.00673   0.00103  -0.0581   0.4628   0.9779  79.8244 286.7950
   5.508   0.6883   0.00678   0.00104  -0.0584   0.4613   0.9815  79.9765 287.9949
   5.593   0.7002   0.00679   0.00104  -0.0589   0.4596   0.9844  80.1390 289.0747
   5.678   0.7122   0.00681   0.00105  -0.0594   0.4578   0.9871  80.3126 290.1750
   5.764   0.7244   0.00683   0.00106  -0.0599   0.4560   0.9896  80.4833 291.2695
   5.849   0.7365   0.00686   0.00107  -0.0604   0.4542   0.9918  80.6538 292.4018
   5.935   0.7488   0.00690   0.00107  -0.0609   0.4522   0.9939  80.8497 293.5674
   6.020   0.7613   0.00694   0.00107  -0.0616   0.4497   0.9956  81.0855 294.6933
   6.106   0.7743   0.00695   0.00108  -0.0623   0.4466   0.9969  81.3899 295.7358
   6.191   0.7870   0.00698   0.00107  -0.0629   0.4431   0.9982  81.7221 296.9706
   6.276   0.7996   0.00704   0.00107  -0.0635   0.4400   0.9993  82.0219 298.6213
   6.362   0.8109   0.00705   0.00108  -0.0639   0.4371   1.0000  82.3013 301.0000
   6.447   0.8194   0.00707   0.00107  -0.0636   0.4345   1.0000  82.5530 301.0000
   6.533   0.8278   0.00710   0.00107  -0.0633   0.4318   1.0000  82.8136 301.0000
   6.618   0.8362   0.00714   0.00107  -0.0631   0.4291   1.0000  83.0825 301.0000
   6.704   0.8449   0.00716   0.00107  -0.0628   0.4257   1.0000  83.4044 301.0000
   6.789   0.8535   0.00720   0.00106  -0.0626   0.4223   1.0000  83.7397 301.0000
   6.874   0.8619   0.00724   0.00106  -0.0623   0.4192   1.0000  84.0391 301.0000
   6.960   0.8708   0.00726   0.00106  -0.0621   0.4161   1.0000  84.3348 301.0000
   7.045   0.8796   0.00730   0.00107  -0.0619   0.4132   1.0000  84.6168 301.0000
   7.131   0.8883   0.00735   0.00107  -0.0617   0.4105   1.0000  84.8882 301.0000
   7.216   0.8972   0.00738   0.00108  -0.0615   0.4077   1.0000  85.1523 301.0000
   7.301   0.9063   0.00741   0.00108  -0.0613   0.4045   1.0000  85.4667 301.0000
   7.387   0.9151   0.00746   0.00109  -0.0611   0.4011   1.0000  85.7993 301.0000
   7.472   0.9240   0.00750   0.00109  -0.0610   0.3978   1.0000  86.1284 301.0000
   7.558   0.9331   0.00754   0.00110  -0.0608   0.3938   1.0000  86.5142 301.0000
   7.643   0.9419   0.00760   0.00111  -0.0606   0.3898   1.0000  86.9092 301.0000
   7.729   0.9509   0.00764   0.00111  -0.0605   0.3858   1.0000  87.3033 301.0000
   7.814   0.9598   0.00770   0.00112  -0.0603   0.3813   1.0000  87.7415 301.0000
   7.899   0.9687   0.00776   0.00113  -0.0601   0.3771   1.0000  88.1583 301.0000
   7.985   0.9777   0.00781   0.00114  -0.0600   0.3721   1.0000  88.6535 301.0000
   8.070   0.9866   0.00787   0.00116  -0.0598   0.3669   1.0000  89.1715 301.0000
   8.156   0.9954   0.00795   0.00117  -0.0596   0.3606   1.0000  89.8004 301.0000
   8.241   1.0041   0.00802   0.00119  -0.0594   0.3537   1.0000  90.4898 301.0000
   8.327   1.0127   0.00812   0.00121  -0.0592   0.3455   1.0000  91.3085 301.0000
   8.412   1.0211   0.00823   0.00124  -0.0590   0.3349   1.0000  92.3779 301.0000
   8.498   1.0292   0.00837   0.00128  -0.0587   0.3227   1.0000  93.6190 301.0000
   8.583   1.0370   0.00854   0.00133  -0.0583   0.3066   1.0000  95.2854 301.0000
   8.668   1.0440   0.00878   0.00141  -0.0579   0.2854   1.0000  97.5054 301.0000
   8.754   1.0500   0.00912   0.00155  -0.0573   0.2569   1.0000 100.5665 301.0000
   8.839   1.0558   0.00948   0.00171  -0.0568   0.2327   1.0000 103.2592 301.0000
   8.925   1.0624   0.00976   0.00185  -0.0563   0.2156   1.0000 105.2116 301.0000
   9.010   1.0697   0.00998   0.00195  -0.0559   0.2030   1.0000 106.6905 301.0000
   9.095   1.0771   0.01018   0.00205  -0.0555   0.1932   1.0000 107.8689 301.0000
   9.181   1.0849   0.01035   0.00213  -0.0552   0.1847   1.0000 108.9014 301.0000
   9.266   1.0927   0.01052   0.00221  -0.0549   0.1763   1.0000 109.9459 301.0000
   9.352   1.1005   0.01069   0.00229  -0.0546   0.1683   1.0000 110.9609 301.0000
   9.437   1.1083   0.01085   0.00237  -0.0543   0.1602   1.0000 112.0011 301.0000
   9.523   1.1160   0.01102   0.00244  -0.0539   0.1514   1.0000 113.1669 301.0000
   9.608   1.1236   0.01120   0.00252  -0.0536   0.1427   1.0000 114.3346 301.0000
   9.694   1.1311   0.01139   0.00261  -0.0532   0.1330   1.0000 115.6846 301.0000
   9.779   1.1382   0.01160   0.00271  -0.0528   0.1233   1.0000 117.0564 301.0000
   9.864   1.1454   0.01181   0.00281  -0.0524   0.1133   1.0000 118.5349 301.0000
   9.950   1.1523   0.01204   0.00292  -0.0520   0.1042   1.0000 119.9311 301.0000
  10.035   1.1594   0.01225   0.00303  -0.0516   0.0960   1.0000 121.2395 301.0000
  10.121   1.1664   0.01246   0.00313  -0.0512   0.0886   1.0000 122.4688 301.0000
  10.206   1.1736   0.01265   0.00324  -0.0508   0.0823   1.0000 123.5316 301.0000
  10.291   1.1808   0.01285   0.00334  -0.0504   0.0764   1.0000 124.5758 301.0000
  10.377   1.1880   0.01304   0.00343  -0.0500   0.0713   1.0000 125.5030 301.0000
  10.462   1.1952   0.01322   0.00353  -0.0496   0.0669   1.0000 126.3271 301.0000
  10.548   1.2025   0.01340   0.00362  -0.0492   0.0628   1.0000 127.1298 301.0000
  10.633   1.2097   0.01358   0.00371  -0.0488   0.0590   1.0000 127.8815 301.0000
  10.719   1.2171   0.01374   0.00380  -0.0484   0.0559   1.0000 128.5287 301.0000
  10.804   1.2243   0.01392   0.00389  -0.0480   0.0530   1.0000 129.1209 301.0000
  10.889   1.2318   0.01407   0.00397  -0.0477   0.0502   1.0000 129.7294 301.0000
  10.975   1.2391   0.01423   0.00405  -0.0473   0.0478   1.0000 130.2671 301.0000
  11.060   1.2463   0.01440   0.00414  -0.0469   0.0454   1.0000 130.7961 301.0000
  11.146   1.2536   0.01455   0.00422  -0.0465   0.0435   1.0000 131.2456 301.0000
  11.231   1.2609   0.01471   0.00430  -0.0461   0.0417   1.0000 131.6783 301.0000
  11.317   1.2680   0.01488   0.00439  -0.0457   0.0401   1.0000 132.0534 301.0000
  11.402   1.2756   0.01501   0.00446  -0.0454   0.0386   1.0000 132.4145 301.0000
  11.487   1.2828   0.01517   0.00454  -0.0450   0.0372   1.0000 132.7737 301.0000
  11.573   1.2899   0.01533   0.00462  -0.0445   0.0360   1.0000 133.0742 301.0000
  11.658   1.2972   0.01547   0.00470  -0.0442   0.0350   1.0000 133.3454 301.0000
  11.744   1.3044   0.01562   0.00478  -0.0438   0.0340   1.0000 133.6105 301.0000
  11.829   1.3113   0.01578   0.00486  -0.0433   0.0330   1.0000 133.8599 301.0000
  11.915   1.3182   0.01594   0.00494  -0.0429   0.0322   1.0000 134.0794 301.0000
  12.000   1.3254   0.01608   0.00502  -0.0425   0.0314   1.0000 134.2879 301.0000
