  
       XFOIL         Version 6.99
  
 Calculated polar for: Repaneled_Airfoil                               
  
 1 1 Reynolds number fixed          Mach number fixed         
  
 xtrf =   1.000 (top)        1.000 (bottom)  
 Mach =   0.000     Re =     1.000 e 6     Ncrit =   9.000  9.000
  
   alpha    CL        CD       CDp       CM     Top_Xtr  Bot_Xtr  Top_Itr  Bot_Itr
  ------ -------- --------- --------- -------- -------- -------- -------- --------
  -5.000   0.3860   0.00789   0.00113  -0.1450   0.7439   0.1415  51.2487 187.6108
  -4.915   0.3959   0.00788   0.00112  -0.1450   0.7430   0.1438  51.3541 187.9316
  -4.829   0.4058   0.00785   0.00112  -0.1451   0.7420   0.1458  51.4566 188.2128
  -4.744   0.4157   0.00784   0.00112  -0.1452   0.7411   0.1480  51.5580 188.5075
  -4.658   0.4256   0.00783   0.00111  -0.1452   0.7401   0.1502  51.6588 188.8113
  -4.573   0.4355   0.00782   0.00110  -0.1453   0.7392   0.1522  51.7571 189.0805
  -4.487   0.4454   0.00780   0.00109  -0.1453   0.7384   0.1542  51.8510 189.3389
  -4.402   0.4553   0.00779   0.00108  -0.1454   0.7375   0.1562  51.9410 189.6098
  -4.317   0.4652   0.00780   0.00107  -0.1454   0.7367   0.1582  52.0334 189.8791
  -4.231   0.4751   0.00777   0.00107  -0.1455   0.7357   0.1601  52.1363 190.1235
  -4.146   0.4849   0.00775   0.00107  -0.1455   0.7348   0.1620  52.2371 190.3686
  -4.060   0.4948   0.00774   0.00107  -0.1456   0.7338   0.1640  52.3397 190.6315
  -3.975   0.5047   0.00773   0.00106  -0.1456   0.7328   0.1660  52.4472 190.8879
  -3.889   0.5146   0.00771   0.00105  -0.1457   0.7318   0.1677  52.5594 191.1129
  -3.804   0.5244   0.00769   0.00104  -0.1457   0.7307   0.1694  52.6740 191.3314
  -3.719   0.5343   0.00768   0.00103  -0.1458   0.7296   0.1712  52.7878 191.5595
  -3.633   0.5441   0.00768   0.00101  -0.1458   0.7286   0.1730  52.8988 191.7864
  -3.548   0.5540   0.00768   0.00100  -0.1459   0.7276   0.1746  53.0078 191.9921
  -3.462   0.5638   0.00765   0.00099  -0.1459   0.7263   0.1762  53.1408 192.1956
  -3.377   0.5736   0.00762   0.00099  -0.1459   0.7250   0.1779  53.2790 192.4081
  -3.292   0.5834   0.00761   0.00098  -0.1460   0.7237   0.1797  53.4184 192.6401
  -3.206   0.5933   0.00760   0.00097  -0.1460   0.7224   0.1816  53.5581 192.8732
  -3.121   0.6031   0.00758   0.00095  -0.1461   0.7211   0.1833  53.6958 193.0854
  -3.035   0.6129   0.00756   0.00093  -0.1461   0.7198   0.1850  53.8285 193.2929
  -2.950   0.6227   0.00755   0.00091  -0.1461   0.7186   0.1866  53.9556 193.4948
  -2.864   0.6324   0.00754   0.00090  -0.1462   0.7172   0.1882  54.0998 193.6947
  -2.779   0.6423   0.00752   0.00089  -0.1462   0.7157   0.1899  54.2638 193.8955
  -2.693   0.6520   0.00750   0.00088  -0.1462   0.7140   0.1914  54.4351 194.0884
  -2.608   0.6618   0.00747   0.00086  -0.1463   0.7123   0.1931  54.6123 194.2951
  -2.523   0.6715   0.00746   0.00084  -0.1463   0.7107   0.1949  54.7888 194.5135
  -2.437   0.6812   0.00745   0.00082  -0.1463   0.7090   0.1968  54.9592 194.7406
  -2.352   0.6909   0.00744   0.00080  -0.1463   0.7070   0.1986  55.1675 194.9612
  -2.266   0.7007   0.00741   0.00079  -0.1464   0.7048   0.2006  55.4012 195.1952
  -2.181   0.7103   0.00738   0.00077  -0.1464   0.7025   0.2025  55.6333 195.4288
  -2.095   0.7200   0.00737   0.00075  -0.1464   0.7004   0.2045  55.8551 195.6623
  -2.010   0.7296   0.00736   0.00072  -0.1464   0.6982   0.2064  56.0866 195.8884
  -1.925   0.7393   0.00734   0.00071  -0.1464   0.6952   0.2083  56.3906 196.1186
  -1.839   0.7489   0.00731   0.00069  -0.1464   0.6921   0.2106  56.7132 196.3804
  -1.754   0.7584   0.00730   0.00066  -0.1464   0.6890   0.2131  57.0310 196.6737
  -1.668   0.7681   0.00729   0.00064  -0.1464   0.6851   0.2157  57.4268 196.9835
  -1.583   0.7774   0.00727   0.00062  -0.1464   0.6809   0.2189  57.8516 197.3555
  -1.498   0.7869   0.00725   0.00059  -0.1463   0.6762   0.2227  58.3328 197.7951
  -1.412   0.7960   0.00724   0.00056  -0.1463   0.6702   0.2275  58.9361 198.3446
  -1.327   0.8052   0.00721   0.00054  -0.1462   0.6624   0.2352  59.7277 199.2257
  -1.241   0.8136   0.00712   0.00051  -0.1460   0.6525   0.2771  60.7127 203.8295
  -1.156   0.8211   0.00700   0.00054  -0.1457   0.6395   0.3787  62.0033 214.2384
  -1.070   0.8282   0.00710   0.00055  -0.1453   0.6181   0.4012  64.1074 216.4531
  -0.985   0.8333   0.00734   0.00060  -0.1444   0.5827   0.4153  67.5468 217.8333
  -0.899   0.8346   0.00786   0.00076  -0.1429   0.5237   0.4246  73.2028 218.7378
  -0.814   0.8316   0.00867   0.00106  -0.1407   0.4388   0.4305  81.3154 219.3063
  -0.729   0.8352   0.00905   0.00122  -0.1397   0.4019   0.4384  84.8849 220.0747
  -0.643   0.8408   0.00930   0.00132  -0.1390   0.3796   0.4461  87.0600 220.8163
  -0.558   0.8476   0.00947   0.00140  -0.1385   0.3651   0.4533  88.4974 221.5201
  -0.472   0.8550   0.00960   0.00146  -0.1382   0.3548   0.4602  89.5205 222.1782
  -0.387   0.8627   0.00971   0.00151  -0.1378   0.3473   0.4668  90.2648 222.8181
  -0.301   0.8706   0.00981   0.00155  -0.1376   0.3413   0.4726  90.8671 223.3754
  -0.216   0.8788   0.00989   0.00159  -0.1373   0.3366   0.4783  91.3401 223.9230
  -0.131   0.8869   0.00997   0.00163  -0.1371   0.3325   0.4836  91.7621 224.4308
  -0.045   0.8952   0.01005   0.00167  -0.1369   0.3291   0.4886  92.0992 224.9093
   0.040   0.9036   0.01011   0.00170  -0.1367   0.3262   0.4926  92.3951 225.2995
   0.126   0.9120   0.01018   0.00173  -0.1365   0.3236   0.4969  92.6665 225.7127
   0.211   0.9202   0.01025   0.00176  -0.1362   0.3212   0.5009  92.9051 226.0980
   0.296   0.9286   0.01031   0.00179  -0.1360   0.3192   0.5050  93.1069 226.4833
   0.382   0.9372   0.01036   0.00182  -0.1359   0.3174   0.5091  93.2958 226.8772
   0.467   0.9457   0.01042   0.00185  -0.1357   0.3156   0.5127  93.4767 227.2245
   0.553   0.9540   0.01048   0.00188  -0.1355   0.3140   0.5164  93.6454 227.5795
   0.638   0.9623   0.01055   0.00191  -0.1353   0.3125   0.5200  93.8008 227.9302
   0.724   0.9704   0.01062   0.00194  -0.1350   0.3111   0.5233  93.9457 228.2476
   0.809   0.9788   0.01068   0.00197  -0.1348   0.3099   0.5271  94.0704 228.6070
   0.894   0.9874   0.01073   0.00199  -0.1346   0.3087   0.5311  94.1894 228.9901
   0.980   0.9959   0.01077   0.00202  -0.1345   0.3076   0.5349  94.3075 229.3552
   1.065   1.0043   0.01083   0.00205  -0.1343   0.3065   0.5390  94.4226 229.7558
   1.151   1.0126   0.01088   0.00207  -0.1340   0.3053   0.5430  94.5391 230.1420
   1.236   1.0207   0.01095   0.00210  -0.1338   0.3041   0.5470  94.6666 230.5243
   1.322   1.0287   0.01102   0.00213  -0.1335   0.3028   0.5509  94.8053 230.8958
   1.407   1.0364   0.01110   0.00217  -0.1332   0.3013   0.5541  94.9558 231.2087
   1.492   1.0447   0.01115   0.00219  -0.1330   0.3000   0.5577  95.0960 231.5555
   1.578   1.0532   0.01120   0.00221  -0.1328   0.2985   0.5614  95.2459 231.9128
   1.663   1.0614   0.01125   0.00223  -0.1326   0.2971   0.5649  95.3976 232.2513
   1.749   1.0695   0.01131   0.00226  -0.1324   0.2958   0.5688  95.5356 232.6252
   1.920   1.0850   0.01145   0.00232  -0.1317   0.2931   0.5768  95.8162 233.3987
   2.005   1.0921   0.01155   0.00236  -0.1313   0.2915   0.5811  95.9791 233.8207
   2.091   1.1005   0.01159   0.00237  -0.1311   0.2901   0.5856  96.1246 234.2560
   2.176   1.1089   0.01163   0.00239  -0.1309   0.2886   0.5907  96.2834 234.7514
   2.261   1.1167   0.01168   0.00241  -0.1307   0.2871   0.5959  96.4448 235.2556
   2.347   1.1241   0.01174   0.00243  -0.1303   0.2857   0.6015  96.5962 235.8071
   2.432   1.1310   0.01180   0.00246  -0.1298   0.2843   0.6069  96.7404 236.3353
   2.518   1.1374   0.01188   0.00248  -0.1292   0.2829   0.6127  96.8838 236.9077
   2.603   1.1436   0.01196   0.00251  -0.1286   0.2816   0.6192  97.0212 237.5409
   2.688   1.1516   0.01199   0.00253  -0.1284   0.2805   0.6273  97.1418 238.3422
   2.774   1.1595   0.01202   0.00255  -0.1281   0.2793   0.6374  97.2701 239.3408
   2.859   1.1673   0.01204   0.00257  -0.1278   0.2781   0.6515  97.3994 240.7489
   2.945   1.1749   0.01202   0.00262  -0.1275   0.2768   0.6889  97.5326 244.5506
   3.030   1.1867   0.01161   0.00274  -0.1281   0.2753   1.0001  97.6950 301.0000
   3.116   1.1935   0.01171   0.00276  -0.1276   0.2740   1.0001  97.8293 301.0000
   3.201   1.1999   0.01183   0.00280  -0.1271   0.2727   1.0001  97.9663 301.0000
   3.286   1.2076   0.01190   0.00282  -0.1268   0.2716   1.0001  98.0920 301.0000
   3.372   1.2155   0.01196   0.00283  -0.1265   0.2703   1.0001  98.2294 301.0000
   3.457   1.2232   0.01203   0.00285  -0.1262   0.2689   1.0001  98.3762 301.0000
   3.543   1.2307   0.01211   0.00287  -0.1259   0.2675   1.0001  98.5331 301.0000
   3.628   1.2378   0.01220   0.00290  -0.1255   0.2660   1.0001  98.6909 301.0000
   3.714   1.2446   0.01231   0.00293  -0.1250   0.2645   1.0001  98.8512 301.0000
   3.799   1.2511   0.01244   0.00296  -0.1245   0.2630   1.0001  99.0151 301.0000
   3.884   1.2594   0.01249   0.00297  -0.1243   0.2614   1.0001  99.1859 301.0000
   3.970   1.2671   0.01256   0.00299  -0.1241   0.2596   1.0001  99.3839 301.0000
   4.055   1.2745   0.01265   0.00301  -0.1237   0.2577   1.0001  99.5888 301.0000
   4.141   1.2815   0.01276   0.00304  -0.1233   0.2559   1.0001  99.7902 301.0000
   4.226   1.2879   0.01289   0.00308  -0.1228   0.2541   1.0001  99.9833 301.0000
   4.312   1.2960   0.01295   0.00309  -0.1226   0.2523   1.0001 100.1818 301.0000
   4.397   1.3037   0.01303   0.00311  -0.1224   0.2501   1.0001 100.4227 301.0000
   4.482   1.3110   0.01313   0.00313  -0.1220   0.2477   1.0001 100.6869 301.0000
   4.568   1.3177   0.01325   0.00316  -0.1216   0.2453   1.0001 100.9474 301.0000
   4.653   1.3253   0.01334   0.00318  -0.1213   0.2430   1.0001 101.2110 301.0000
   4.739   1.3326   0.01344   0.00320  -0.1210   0.2401   1.0001 101.5301 301.0000
   4.824   1.3393   0.01357   0.00324  -0.1206   0.2370   1.0001 101.8751 301.0000
   4.910   1.3463   0.01368   0.00326  -0.1202   0.2338   1.0001 102.2401 301.0000
   4.995   1.3531   0.01381   0.00329  -0.1198   0.2293   1.0001 102.7400 301.0000
   5.080   1.3597   0.01395   0.00333  -0.1194   0.2244   1.0001 103.2979 301.0000
   5.166   1.3658   0.01412   0.00337  -0.1189   0.2164   1.0001 104.2217 301.0000
   5.251   1.3704   0.01436   0.00344  -0.1182   0.2048   1.0001 105.5735 301.0000
   5.337   1.3669   0.01505   0.00370  -0.1163   0.1691   1.0001 109.9567 301.0000
   5.422   1.3594   0.01600   0.00418  -0.1138   0.1352   1.0001 114.4782 301.0000
   5.508   1.3583   0.01661   0.00450  -0.1123   0.1172   1.0001 117.0833 301.0000
   5.593   1.3603   0.01705   0.00471  -0.1112   0.1052   1.0001 118.9114 301.0000
   5.678   1.3634   0.01742   0.00489  -0.1104   0.0964   1.0001 120.3174 301.0000
   5.764   1.3673   0.01776   0.00505  -0.1096   0.0888   1.0001 121.5839 301.0000
   5.849   1.3715   0.01807   0.00520  -0.1089   0.0825   1.0001 122.6625 301.0000
   5.935   1.3761   0.01836   0.00533  -0.1082   0.0771   1.0001 123.6171 301.0000
   6.020   1.3808   0.01865   0.00546  -0.1076   0.0722   1.0001 124.5030 301.0000
   6.106   1.3857   0.01893   0.00559  -0.1070   0.0680   1.0001 125.2876 301.0000
   6.276   1.3959   0.01945   0.00582  -0.1059   0.0610   1.0001 126.6562 301.0000
   6.362   1.4010   0.01971   0.00594  -0.1053   0.0581   1.0001 127.2557 301.0000
   6.447   1.4062   0.01997   0.00606  -0.1048   0.0553   1.0001 127.8347 301.0000
   6.533   1.4116   0.02021   0.00617  -0.1043   0.0530   1.0001 128.3244 301.0000
   6.618   1.4168   0.02047   0.00629  -0.1038   0.0508   1.0001 128.7923 301.0000
   6.704   1.4222   0.02072   0.00640  -0.1033   0.0489   1.0001 129.2013 301.0000
   6.789   1.4278   0.02096   0.00651  -0.1028   0.0471   1.0001 129.6269 301.0000
   6.874   1.4328   0.02123   0.00663  -0.1023   0.0453   1.0001 130.0132 301.0000
   6.960   1.4385   0.02146   0.00674  -0.1018   0.0438   1.0001 130.3706 301.0000
   7.045   1.4438   0.02171   0.00686  -0.1013   0.0423   1.0001 130.7268 301.0000
   7.131   1.4489   0.02199   0.00698  -0.1008   0.0410   1.0001 131.0474 301.0000
   7.216   1.4545   0.02222   0.00709  -0.1003   0.0398   1.0001 131.3458 301.0000
   7.301   1.4597   0.02248   0.00721  -0.0999   0.0386   1.0001 131.6413 301.0000
   7.387   1.4646   0.02277   0.00735  -0.0993   0.0375   1.0001 131.9145 301.0000
   7.472   1.4701   0.02301   0.00746  -0.0989   0.0365   1.0001 132.1538 301.0000
   7.558   1.4756   0.02326   0.00758  -0.0984   0.0356   1.0001 132.4064 301.0000
   7.643   1.4808   0.02352   0.00770  -0.0979   0.0346   1.0001 132.6553 301.0000
   7.729   1.4857   0.02381   0.00784  -0.0974   0.0337   1.0001 132.8860 301.0000
   7.814   1.4908   0.02409   0.00797  -0.0970   0.0329   1.0001 133.0915 301.0000
   7.899   1.4963   0.02434   0.00809  -0.0965   0.0322   1.0001 133.2901 301.0000
   7.985   1.5015   0.02461   0.00822  -0.0961   0.0315   1.0001 133.4910 301.0000
   8.070   1.5064   0.02490   0.00836  -0.0956   0.0308   1.0001 133.6827 301.0000
   8.156   1.5111   0.02521   0.00851  -0.0951   0.0301   1.0001 133.8669 301.0000
   8.241   1.5158   0.02552   0.00867  -0.0945   0.0295   1.0001 134.0390 301.0000
   8.327   1.5210   0.02578   0.00879  -0.0941   0.0290   1.0001 134.1888 301.0000
   8.412   1.5261   0.02607   0.00893  -0.0936   0.0284   1.0001 134.3496 301.0000
   8.498   1.5309   0.02637   0.00908  -0.0932   0.0279   1.0001 134.5087 301.0000
   8.583   1.5355   0.02668   0.00924  -0.0927   0.0274   1.0001 134.6612 301.0000
   8.668   1.5397   0.02702   0.00941  -0.0921   0.0269   1.0001 134.8118 301.0000
   8.754   1.5436   0.02739   0.00960  -0.0916   0.0263   1.0001 134.9727 301.0000
   8.839   1.5486   0.02768   0.00975  -0.0911   0.0259   1.0001 135.0988 301.0000
   8.925   1.5537   0.02797   0.00989  -0.0907   0.0254   1.0001 135.2381 301.0000
   9.010   1.5585   0.02827   0.01004  -0.0902   0.0250   1.0001 135.3876 301.0000
   9.095   1.5632   0.02859   0.01020  -0.0898   0.0245   1.0001 135.5380 301.0000
   9.181   1.5676   0.02893   0.01037  -0.0893   0.0240   1.0001 135.6824 301.0000
   9.266   1.5716   0.02929   0.01056  -0.0888   0.0236   1.0001 135.8217 301.0000
   9.352   1.5753   0.02969   0.01077  -0.0882   0.0231   1.0001 135.9642 301.0000
   9.437   1.5798   0.03002   0.01094  -0.0878   0.0227   1.0001 136.0788 301.0000
   9.523   1.5845   0.03034   0.01111  -0.0873   0.0224   1.0001 136.1990 301.0000
   9.608   1.5890   0.03067   0.01128  -0.0869   0.0220   1.0001 136.3239 301.0000
   9.694   1.5934   0.03101   0.01146  -0.0864   0.0216   1.0001 136.4499 301.0000
   9.779   1.5974   0.03138   0.01165  -0.0859   0.0212   1.0001 136.5716 301.0000
   9.864   1.6013   0.03176   0.01185  -0.0854   0.0209   1.0001 136.6886 301.0000
   9.950   1.6049   0.03216   0.01207  -0.0849   0.0206   1.0001 136.8041 301.0000
  10.035   1.6081   0.03261   0.01231  -0.0844   0.0202   1.0001 136.9235 301.0000
  10.121   1.6114   0.03304   0.01256  -0.0838   0.0199   1.0001 137.0280 301.0000
  10.206   1.6157   0.03340   0.01275  -0.0834   0.0197   1.0001 137.1109 301.0000
  10.291   1.6199   0.03377   0.01295  -0.0830   0.0194   1.0001 137.2010 301.0000
  10.377   1.6239   0.03416   0.01316  -0.0825   0.0191   1.0001 137.2928 301.0000
  10.462   1.6278   0.03456   0.01339  -0.0821   0.0189   1.0001 137.3841 301.0000
  10.548   1.6314   0.03498   0.01362  -0.0816   0.0186   1.0001 137.4737 301.0000
  10.633   1.6350   0.03541   0.01387  -0.0811   0.0184   1.0001 137.5594 301.0000
  10.719   1.6383   0.03586   0.01412  -0.0806   0.0182   1.0001 137.6422 301.0000
  10.804   1.6414   0.03634   0.01440  -0.0801   0.0179   1.0001 137.7238 301.0000
  10.889   1.6443   0.03683   0.01468  -0.0796   0.0177   1.0001 137.8071 301.0000
  10.975   1.6468   0.03736   0.01500  -0.0791   0.0175   1.0001 137.8945 301.0000
  11.060   1.6486   0.03796   0.01536  -0.0785   0.0172   1.0001 137.9865 301.0000
  11.146   1.6522   0.03839   0.01561  -0.0781   0.0170   1.0001 138.0467 301.0000
  11.231   1.6560   0.03881   0.01585  -0.0777   0.0169   1.0001 138.1108 301.0000
  11.317   1.6596   0.03925   0.01611  -0.0773   0.0167   1.0001 138.1821 301.0000
  11.402   1.6629   0.03971   0.01638  -0.0768   0.0165   1.0001 138.2581 301.0000
  11.487   1.6662   0.04019   0.01666  -0.0764   0.0163   1.0001 138.3365 301.0000
  11.573   1.6695   0.04066   0.01694  -0.0760   0.0161   1.0001 138.4154 301.0000
  11.658   1.6725   0.04116   0.01724  -0.0755   0.0159   1.0001 138.4933 301.0000
  11.744   1.6753   0.04169   0.01755  -0.0751   0.0157   1.0001 138.5694 301.0000
  11.829   1.6780   0.04222   0.01787  -0.0747   0.0155   1.0001 138.6431 301.0000
  11.915   1.6806   0.04277   0.01821  -0.0742   0.0153   1.0001 138.7146 301.0000
  12.000   1.6829   0.04336   0.01857  -0.0738   0.0151   1.0001 138.7834 301.0000
