  
       XFOIL         Version 6.99
  
 Calculated polar for: Repaneled_Airfoil                               
  
 1 1 Reynolds number fixed          Mach number fixed         
  
 xtrf =   1.000 (top)        1.000 (bottom)  
 Mach =   0.000     Re =     1.000 e 6     Ncrit =   9.000  9.000
  
   alpha    CL        CD       CDp       CM     Top_Xtr  Bot_Xtr  Top_Itr  Bot_Itr
  ------ -------- --------- --------- -------- -------- -------- -------- --------
  -5.000  -0.3282   0.00922   0.00170  -0.0387   0.8130   0.0537  43.6959 173.3117
  -4.915  -0.3188   0.00918   0.00167  -0.0386   0.8103   0.0552  44.0165 173.6156
  -4.829  -0.3093   0.00914   0.00164  -0.0386   0.8074   0.0565  44.3774 173.9015
  -4.744  -0.2999   0.00909   0.00161  -0.0385   0.8045   0.0578  44.7191 174.1620
  -4.658  -0.2906   0.00904   0.00158  -0.0385   0.8020   0.0591  45.0231 174.4238
  -4.573  -0.2811   0.00899   0.00155  -0.0384   0.7991   0.0605  45.3704 174.6952
  -4.487  -0.2715   0.00896   0.00152  -0.0384   0.7962   0.0617  45.7114 174.9459
  -4.402  -0.2622   0.00891   0.00149  -0.0383   0.7935   0.0630  46.0310 175.1946
  -4.317  -0.2527   0.00886   0.00146  -0.0383   0.7903   0.0643  46.4075 175.4556
  -4.231  -0.2433   0.00882   0.00143  -0.0382   0.7872   0.0657  46.7765 175.7308
  -4.146  -0.2338   0.00880   0.00140  -0.0382   0.7841   0.0670  47.1354 175.9864
  -4.060  -0.2244   0.00873   0.00137  -0.0381   0.7806   0.0685  47.5361 176.2652
  -3.975  -0.2150   0.00870   0.00135  -0.0381   0.7773   0.0700  47.9148 176.5467
  -3.889  -0.2054   0.00866   0.00132  -0.0380   0.7738   0.0716  48.3214 176.8433
  -3.804  -0.1959   0.00863   0.00129  -0.0380   0.7702   0.0731  48.7260 177.1239
  -3.719  -0.1865   0.00859   0.00127  -0.0379   0.7670   0.0748  49.0872 177.4191
  -3.633  -0.1769   0.00855   0.00125  -0.0379   0.7636   0.0765  49.4749 177.7341
  -3.548  -0.1673   0.00853   0.00122  -0.0379   0.7604   0.0781  49.8302 178.0282
  -3.462  -0.1579   0.00848   0.00120  -0.0378   0.7575   0.0798  50.1602 178.3260
  -3.377  -0.1483   0.00844   0.00118  -0.0378   0.7542   0.0816  50.5181 178.6430
  -3.292  -0.1387   0.00842   0.00116  -0.0378   0.7511   0.0834  50.8630 178.9518
  -3.206  -0.1291   0.00838   0.00114  -0.0378   0.7479   0.0852  51.2158 179.2614
  -3.121  -0.1195   0.00834   0.00112  -0.0377   0.7443   0.0871  51.6138 179.5892
  -2.950  -0.1003   0.00828   0.00108  -0.0377   0.7367   0.0908  52.4363 180.2106
  -2.864  -0.0908   0.00826   0.00106  -0.0377   0.7325   0.0927  52.8902 180.5174
  -2.779  -0.0812   0.00823   0.00104  -0.0376   0.7279   0.0946  53.3828 180.8341
  -2.693  -0.0717   0.00821   0.00102  -0.0376   0.7229   0.0964  53.9243 181.1285
  -2.608  -0.0621   0.00817   0.00100  -0.0376   0.7172   0.0984  54.5288 181.4401
  -2.523  -0.0526   0.00816   0.00098  -0.0375   0.7109   0.1004  55.1911 181.7725
  -2.437  -0.0431   0.00815   0.00096  -0.0375   0.7034   0.1024  55.9798 182.0797
  -2.352  -0.0337   0.00812   0.00094  -0.0374   0.6941   0.1044  56.9477 182.3913
  -2.266  -0.0244   0.00812   0.00092  -0.0373   0.6824   0.1065  58.1539 182.7196
  -2.095  -0.0065   0.00818   0.00087  -0.0370   0.6418   0.1104  62.2523 183.3165
  -2.010   0.0018   0.00829   0.00085  -0.0367   0.6062   0.1124  65.7656 183.6196
  -1.925   0.0096   0.00847   0.00086  -0.0364   0.5601   0.1143  70.2329 183.9187
  -1.839   0.0173   0.00866   0.00088  -0.0361   0.5110   0.1162  74.9344 184.2030
  -1.754   0.0253   0.00884   0.00092  -0.0359   0.4683   0.1183  79.0084 184.5116
  -1.668   0.0337   0.00899   0.00094  -0.0357   0.4351   0.1206  82.1959 184.8423
  -1.583   0.0424   0.00909   0.00096  -0.0356   0.4107   0.1227  84.5569 185.1529
  -1.498   0.0513   0.00915   0.00097  -0.0355   0.3928   0.1250  86.2974 185.4807
  -1.412   0.0605   0.00921   0.00098  -0.0354   0.3791   0.1274  87.6391 185.8266
  -1.327   0.0697   0.00925   0.00098  -0.0354   0.3685   0.1296  88.6867 186.1487
  -1.241   0.0790   0.00927   0.00099  -0.0353   0.3601   0.1320  89.5191 186.4912
  -1.156   0.0884   0.00930   0.00099  -0.0353   0.3533   0.1346  90.1947 186.8476
  -1.070   0.0978   0.00932   0.00099  -0.0352   0.3475   0.1369  90.7809 187.1734
  -0.985   0.1072   0.00932   0.00099  -0.0352   0.3427   0.1394  91.2564 187.5224
  -0.899   0.1167   0.00934   0.00099  -0.0352   0.3384   0.1421  91.6934 187.8925
  -0.814   0.1261   0.00935   0.00099  -0.0352   0.3348   0.1448  92.0560 188.2562
  -0.729   0.1356   0.00934   0.00099  -0.0351   0.3316   0.1478  92.3789 188.6636
  -0.643   0.1451   0.00935   0.00099  -0.0351   0.3287   0.1509  92.6767 189.0742
  -0.558   0.1546   0.00935   0.00100  -0.0351   0.3261   0.1543  92.9375 189.5326
  -0.387   0.1737   0.00934   0.00100  -0.0351   0.3218   0.1622  93.3821 190.5603
  -0.301   0.1832   0.00933   0.00100  -0.0350   0.3197   0.1666  93.5931 191.1289
  -0.216   0.1926   0.00933   0.00100  -0.0350   0.3178   0.1717  93.7909 191.7779
  -0.131   0.2020   0.00932   0.00100  -0.0350   0.3160   0.1772  93.9757 192.4770
  -0.045   0.2115   0.00930   0.00099  -0.0350   0.3144   0.1842  94.1363 193.3422
   0.040   0.2210   0.00926   0.00098  -0.0350   0.3128   0.1945  94.2973 194.6017
   0.126   0.2299   0.00913   0.00095  -0.0349   0.3113   0.2243  94.4519 198.1006
   0.211   0.2361   0.00851   0.00088  -0.0346   0.3101   0.4141  94.5825 217.7435
   0.296   0.2449   0.00841   0.00090  -0.0345   0.3087   0.4527  94.7260 221.4642
   0.382   0.2539   0.00836   0.00091  -0.0344   0.3073   0.4788  94.8645 223.9626
   0.467   0.2631   0.00833   0.00093  -0.0343   0.3060   0.4991  95.0012 225.8980
   0.553   0.2724   0.00829   0.00095  -0.0343   0.3049   0.5163  95.1158 227.5417
   0.638   0.2818   0.00826   0.00096  -0.0343   0.3037   0.5316  95.2369 229.0067
   0.724   0.2912   0.00824   0.00098  -0.0342   0.3026   0.5450  95.3597 230.2943
   0.809   0.3006   0.00823   0.00099  -0.0342   0.3014   0.5574  95.4797 231.4834
   0.894   0.3100   0.00822   0.00101  -0.0341   0.3003   0.5687  95.5943 232.5707
   0.980   0.3194   0.00822   0.00102  -0.0341   0.2993   0.5789  95.7021 233.5520
   1.065   0.3288   0.00822   0.00104  -0.0340   0.2983   0.5882  95.8056 234.4565
   1.151   0.3381   0.00823   0.00105  -0.0340   0.2973   0.5975  95.9091 235.3627
   1.236   0.3474   0.00824   0.00107  -0.0339   0.2963   0.6071  96.0111 236.2965
   1.322   0.3569   0.00822   0.00108  -0.0339   0.2955   0.6172  96.0916 237.2917
   1.407   0.3663   0.00820   0.00109  -0.0339   0.2947   0.6279  96.1771 238.3434
   1.492   0.3757   0.00818   0.00110  -0.0338   0.2939   0.6391  96.2652 239.4511
   1.578   0.3850   0.00816   0.00111  -0.0338   0.2930   0.6511  96.3535 240.6519
   1.749   0.4033   0.00809   0.00113  -0.0336   0.2914   0.6819  96.5293 243.7712
   1.834   0.4119   0.00800   0.00114  -0.0334   0.2905   0.7083  96.6163 246.5141
   1.920   0.4177   0.00773   0.00117  -0.0326   0.2898   0.8015  96.6937 256.8969
   2.005   0.4243   0.00762   0.00123  -0.0318   0.2890   0.8590  96.7744 264.2407
   2.091   0.4320   0.00760   0.00127  -0.0313   0.2882   0.8875  96.8602 268.3321
   2.176   0.4400   0.00762   0.00131  -0.0308   0.2873   0.9061  96.9517 271.2531
   2.261   0.4484   0.00764   0.00134  -0.0305   0.2866   0.9197  97.0320 273.5676
   2.347   0.4571   0.00765   0.00137  -0.0302   0.2859   0.9310  97.1015 275.6196
   2.432   0.4660   0.00767   0.00140  -0.0299   0.2852   0.9409  97.1759 277.5573
   2.518   0.4752   0.00770   0.00142  -0.0298   0.2845   0.9496  97.2521 279.3748
   2.603   0.4846   0.00773   0.00145  -0.0297   0.2838   0.9569  97.3279 281.0331
   2.688   0.4946   0.00776   0.00147  -0.0297   0.2831   0.9626  97.4035 282.4146
   2.774   0.5048   0.00780   0.00150  -0.0298   0.2824   0.9672  97.4789 283.6104
   2.859   0.5153   0.00784   0.00152  -0.0299   0.2817   0.9711  97.5537 284.6980
   2.945   0.5260   0.00788   0.00155  -0.0302   0.2810   0.9747  97.6288 285.7635
   3.030   0.5371   0.00793   0.00157  -0.0305   0.2802   0.9780  97.7048 286.7752
   3.116   0.5484   0.00798   0.00160  -0.0308   0.2795   0.9809  97.7833 287.7611
   3.201   0.5601   0.00804   0.00163  -0.0313   0.2787   0.9834  97.8677 288.6522
   3.286   0.5719   0.00811   0.00166  -0.0318   0.2778   0.9855  97.9609 289.4805
   3.372   0.5844   0.00817   0.00169  -0.0324   0.2771   0.9874  98.0388 290.2673
   3.457   0.5974   0.00820   0.00172  -0.0332   0.2764   0.9890  98.1090 290.9513
   3.543   0.6110   0.00824   0.00174  -0.0340   0.2757   0.9900  98.1865 291.4208
   3.628   0.6241   0.00828   0.00177  -0.0348   0.2750   0.9912  98.2658 292.0375
   3.714   0.6377   0.00832   0.00180  -0.0357   0.2742   0.9921  98.3466 292.5241
   3.799   0.6510   0.00837   0.00182  -0.0365   0.2735   0.9932  98.4241 293.1496
   3.884   0.6646   0.00842   0.00185  -0.0374   0.2728   0.9942  98.5009 293.7354
   3.970   0.6783   0.00846   0.00188  -0.0383   0.2721   0.9952  98.5793 294.3724
   4.055   0.6921   0.00851   0.00190  -0.0392   0.2713   0.9961  98.6589 295.0729
   4.141   0.7061   0.00856   0.00193  -0.0402   0.2705   0.9970  98.7412 295.8092
   4.226   0.7202   0.00863   0.00195  -0.0413   0.2698   0.9979  98.8259 296.6277
   4.312   0.7340   0.00870   0.00198  -0.0422   0.2689   0.9987  98.9145 297.5558
   4.397   0.7470   0.00878   0.00202  -0.0430   0.2681   0.9993  99.0053 298.5701
   4.482   0.7599   0.00880   0.00203  -0.0437   0.2675   0.9999  99.0672 299.9186
   4.568   0.7694   0.00882   0.00205  -0.0437   0.2668   1.0000  99.1388 301.0000
   4.653   0.7777   0.00884   0.00206  -0.0435   0.2661   1.0000  99.2195 301.0000
   4.739   0.7859   0.00886   0.00206  -0.0432   0.2652   1.0000  99.3158 301.0000
   4.824   0.7942   0.00888   0.00207  -0.0429   0.2642   1.0000  99.4251 301.0000
   4.910   0.8024   0.00891   0.00207  -0.0427   0.2632   1.0000  99.5378 301.0000
   4.995   0.8106   0.00893   0.00207  -0.0424   0.2622   1.0000  99.6458 301.0000
   5.080   0.8186   0.00897   0.00207  -0.0421   0.2612   1.0000  99.7492 301.0000
   5.166   0.8265   0.00902   0.00208  -0.0418   0.2603   1.0000  99.8526 301.0000
   5.251   0.8342   0.00909   0.00210  -0.0414   0.2592   1.0000  99.9669 301.0000
   5.337   0.8425   0.00912   0.00211  -0.0412   0.2583   1.0000 100.0695 301.0000
   5.422   0.8509   0.00912   0.00211  -0.0409   0.2572   1.0000 100.1877 301.0000
   5.508   0.8594   0.00913   0.00210  -0.0407   0.2559   1.0000 100.3259 301.0000
   5.593   0.8678   0.00914   0.00210  -0.0404   0.2545   1.0000 100.4797 301.0000
   5.678   0.8761   0.00916   0.00209  -0.0402   0.2531   1.0000 100.6380 301.0000
   5.764   0.8843   0.00919   0.00208  -0.0399   0.2516   1.0000 100.7979 301.0000
   5.849   0.8921   0.00925   0.00208  -0.0396   0.2501   1.0000 100.9632 301.0000
   5.935   0.9005   0.00927   0.00208  -0.0394   0.2488   1.0000 101.1071 301.0000
   6.020   0.9091   0.00928   0.00208  -0.0391   0.2475   1.0000 101.2555 301.0000
   6.106   0.9175   0.00929   0.00208  -0.0389   0.2461   1.0000 101.4029 301.0000
   6.191   0.9259   0.00932   0.00208  -0.0387   0.2448   1.0000 101.5484 301.0000
   6.276   0.9342   0.00935   0.00208  -0.0384   0.2435   1.0000 101.6945 301.0000
   6.362   0.9424   0.00940   0.00208  -0.0382   0.2422   1.0000 101.8371 301.0000
   6.447   0.9503   0.00946   0.00209  -0.0379   0.2409   1.0000 101.9847 301.0000
   6.533   0.9589   0.00947   0.00209  -0.0377   0.2396   1.0000 102.1297 301.0000
   6.618   0.9676   0.00949   0.00209  -0.0375   0.2380   1.0000 102.3085 301.0000
   6.704   0.9761   0.00952   0.00209  -0.0373   0.2362   1.0000 102.5101 301.0000
   6.789   0.9845   0.00955   0.00208  -0.0370   0.2344   1.0000 102.7142 301.0000
   6.874   0.9927   0.00960   0.00209  -0.0368   0.2327   1.0000 102.9041 301.0000
   6.960   1.0011   0.00964   0.00209  -0.0366   0.2312   1.0000 103.0798 301.0000
   7.045   1.0097   0.00967   0.00210  -0.0364   0.2295   1.0000 103.2739 301.0000
   7.131   1.0183   0.00970   0.00210  -0.0362   0.2275   1.0000 103.4981 301.0000
   7.216   1.0268   0.00974   0.00210  -0.0360   0.2254   1.0000 103.7365 301.0000
   7.301   1.0351   0.00979   0.00210  -0.0357   0.2234   1.0000 103.9675 301.0000
   7.387   1.0437   0.00982   0.00211  -0.0356   0.2214   1.0000 104.1940 301.0000
   7.472   1.0523   0.00986   0.00211  -0.0354   0.2192   1.0000 104.4478 301.0000
   7.558   1.0607   0.00992   0.00212  -0.0352   0.2168   1.0000 104.7211 301.0000
   7.643   1.0690   0.00998   0.00213  -0.0350   0.2145   1.0000 104.9941 301.0000
   7.729   1.0777   0.01002   0.00214  -0.0348   0.2119   1.0000 105.2983 301.0000
   7.814   1.0862   0.01008   0.00215  -0.0346   0.2087   1.0000 105.6758 301.0000
   7.899   1.0945   0.01015   0.00216  -0.0344   0.2054   1.0000 106.0621 301.0000
   7.985   1.1031   0.01021   0.00217  -0.0343   0.2009   1.0000 106.5919 301.0000
   8.070   1.1114   0.01030   0.00219  -0.0341   0.1955   1.0000 107.2347 301.0000
   8.156   1.1193   0.01041   0.00221  -0.0338   0.1894   1.0000 107.9787 301.0000
   8.241   1.1271   0.01054   0.00225  -0.0335   0.1817   1.0000 108.9264 301.0000
   8.327   1.1344   0.01071   0.00231  -0.0332   0.1707   1.0000 110.2973 301.0000
   8.412   1.1410   0.01096   0.00241  -0.0328   0.1580   1.0000 111.9324 301.0000
   8.498   1.1468   0.01128   0.00257  -0.0323   0.1415   1.0000 114.1541 301.0000
   8.583   1.1518   0.01168   0.00278  -0.0316   0.1222   1.0000 116.8720 301.0000
   8.668   1.1569   0.01209   0.00301  -0.0310   0.1042   1.0000 119.5831 301.0000
   8.754   1.1625   0.01246   0.00322  -0.0305   0.0902   1.0000 121.8477 301.0000
   8.839   1.1687   0.01276   0.00339  -0.0300   0.0802   1.0000 123.5685 301.0000
   8.925   1.1752   0.01304   0.00355  -0.0296   0.0721   1.0000 125.0210 301.0000
   9.010   1.1821   0.01327   0.00368  -0.0292   0.0663   1.0000 126.1111 301.0000
   9.095   1.1893   0.01348   0.00380  -0.0289   0.0612   1.0000 127.1079 301.0000
   9.266   1.2039   0.01387   0.00402  -0.0283   0.0536   1.0000 128.6728 301.0000
   9.352   1.2113   0.01405   0.00412  -0.0280   0.0507   1.0000 129.2897 301.0000
   9.437   1.2187   0.01423   0.00422  -0.0277   0.0479   1.0000 129.9034 301.0000
   9.523   1.2263   0.01439   0.00431  -0.0275   0.0457   1.0000 130.4159 301.0000
   9.608   1.2337   0.01457   0.00440  -0.0272   0.0436   1.0000 130.8954 301.0000
   9.694   1.2413   0.01472   0.00449  -0.0269   0.0419   1.0000 131.2943 301.0000
   9.779   1.2488   0.01489   0.00458  -0.0266   0.0403   1.0000 131.6789 301.0000
   9.864   1.2560   0.01507   0.00469  -0.0263   0.0389   1.0000 132.0246 301.0000
   9.950   1.2638   0.01520   0.00476  -0.0261   0.0376   1.0000 132.3386 301.0000
  10.035   1.2713   0.01536   0.00485  -0.0258   0.0364   1.0000 132.6625 301.0000
  10.121   1.2785   0.01554   0.00495  -0.0255   0.0352   1.0000 132.9591 301.0000
  10.206   1.2861   0.01568   0.00503  -0.0253   0.0342   1.0000 133.2102 301.0000
  10.291   1.2936   0.01583   0.00511  -0.0250   0.0333   1.0000 133.4693 301.0000
  10.377   1.3008   0.01600   0.00520  -0.0247   0.0323   1.0000 133.7157 301.0000
  10.462   1.3078   0.01620   0.00531  -0.0244   0.0315   1.0000 133.9535 301.0000
  10.548   1.3152   0.01635   0.00540  -0.0241   0.0308   1.0000 134.1480 301.0000
  10.633   1.3225   0.01650   0.00548  -0.0238   0.0300   1.0000 134.3492 301.0000
  10.719   1.3297   0.01666   0.00557  -0.0235   0.0293   1.0000 134.5541 301.0000
  10.804   1.3365   0.01685   0.00568  -0.0232   0.0286   1.0000 134.7535 301.0000
  10.889   1.3430   0.01706   0.00580  -0.0228   0.0279   1.0000 134.9579 301.0000
  10.975   1.3503   0.01721   0.00588  -0.0225   0.0273   1.0000 135.1243 301.0000
  11.060   1.3575   0.01736   0.00596  -0.0222   0.0267   1.0000 135.3047 301.0000
  11.146   1.3645   0.01752   0.00605  -0.0219   0.0261   1.0000 135.4941 301.0000
  11.231   1.3713   0.01770   0.00615  -0.0215   0.0255   1.0000 135.6769 301.0000
  11.317   1.3777   0.01790   0.00626  -0.0212   0.0249   1.0000 135.8514 301.0000
  11.402   1.3839   0.01811   0.00638  -0.0207   0.0243   1.0000 136.0209 301.0000
  11.487   1.3909   0.01826   0.00646  -0.0204   0.0239   1.0000 136.1586 301.0000
  11.573   1.3976   0.01842   0.00655  -0.0201   0.0234   1.0000 136.3094 301.0000
  11.658   1.4041   0.01859   0.00665  -0.0197   0.0230   1.0000 136.4612 301.0000
  11.744   1.4104   0.01878   0.00675  -0.0193   0.0225   1.0000 136.6070 301.0000
  11.829   1.4164   0.01899   0.00686  -0.0188   0.0221   1.0000 136.7465 301.0000
  11.915   1.4219   0.01921   0.00699  -0.0183   0.0216   1.0000 136.8859 301.0000
  12.000   1.4267   0.01944   0.00711  -0.0177   0.0212   1.0000 137.0163 301.0000
