  
       XFOIL         Version 6.99
  
 Calculated polar for: Repaneled_Airfoil                               
  
 1 1 Reynolds number fixed          Mach number fixed         
  
 xtrf =   1.000 (top)        1.000 (bottom)  
 Mach =   0.000     Re =     1.000 e 6     Ncrit =   9.000  9.000
  
   alpha    CL        CD       CDp       CM     Top_Xtr  Bot_Xtr  Top_Itr  Bot_Itr
  ------ -------- --------- --------- -------- -------- -------- -------- --------
  -5.000  -0.3663   0.00863   0.00140  -0.0219   0.7604   0.1828  49.7927 193.0969
  -4.915  -0.3567   0.00858   0.00139  -0.0219   0.7596   0.1862  49.8740 193.5135
  -4.829  -0.3470   0.00856   0.00138  -0.0219   0.7590   0.1895  49.9513 193.9138
  -4.744  -0.3374   0.00852   0.00136  -0.0219   0.7582   0.1924  50.0325 194.2696
  -4.658  -0.3277   0.00848   0.00135  -0.0218   0.7574   0.1954  50.1261 194.6291
  -4.573  -0.3180   0.00845   0.00134  -0.0219   0.7565   0.1981  50.2205 194.9547
  -4.487  -0.3083   0.00840   0.00132  -0.0218   0.7557   0.2006  50.3145 195.2584
  -4.402  -0.2986   0.00836   0.00131  -0.0218   0.7548   0.2034  50.4090 195.5920
  -4.317  -0.2889   0.00833   0.00130  -0.0218   0.7540   0.2062  50.5051 195.9237
  -4.231  -0.2793   0.00829   0.00128  -0.0218   0.7531   0.2090  50.6012 196.2533
  -4.146  -0.2696   0.00825   0.00127  -0.0218   0.7522   0.2123  50.6954 196.6375
  -3.975  -0.2504   0.00817   0.00123  -0.0218   0.7506   0.2190  50.8716 197.4128
  -3.889  -0.2407   0.00814   0.00121  -0.0218   0.7499   0.2225  50.9537 197.8148
  -3.804  -0.2310   0.00810   0.00120  -0.0218   0.7491   0.2257  51.0439 198.1836
  -3.719  -0.2214   0.00805   0.00119  -0.0218   0.7481   0.2293  51.1502 198.5977
  -3.633  -0.2117   0.00801   0.00117  -0.0218   0.7471   0.2333  51.2608 199.0503
  -3.548  -0.2021   0.00795   0.00116  -0.0217   0.7460   0.2379  51.3792 199.5706
  -3.462  -0.1925   0.00790   0.00114  -0.0217   0.7449   0.2429  51.5053 200.1307
  -3.377  -0.1829   0.00785   0.00112  -0.0217   0.7437   0.2487  51.6358 200.7746
  -3.292  -0.1734   0.00779   0.00110  -0.0217   0.7425   0.2554  51.7674 201.5072
  -3.206  -0.1639   0.00773   0.00107  -0.0216   0.7413   0.2632  51.8984 202.3577
  -3.121  -0.1545   0.00767   0.00105  -0.0216   0.7400   0.2720  52.0380 203.3131
  -3.035  -0.1450   0.00759   0.00103  -0.0216   0.7383   0.2827  52.2218 204.4554
  -2.950  -0.1356   0.00751   0.00102  -0.0215   0.7365   0.2948  52.4109 205.7282
  -2.864  -0.1262   0.00743   0.00100  -0.0215   0.7349   0.3070  52.5926 207.0019
  -2.779  -0.1168   0.00736   0.00098  -0.0214   0.7333   0.3194  52.7575 208.2752
  -2.693  -0.1074   0.00730   0.00096  -0.0214   0.7320   0.3314  52.9020 209.5028
  -2.608  -0.0979   0.00725   0.00095  -0.0213   0.7307   0.3433  53.0462 210.7044
  -2.523  -0.0883   0.00718   0.00094  -0.0213   0.7290   0.3543  53.2220 211.8067
  -2.437  -0.0787   0.00713   0.00093  -0.0213   0.7274   0.3642  53.3894 212.7998
  -2.352  -0.0691   0.00708   0.00092  -0.0213   0.7260   0.3733  53.5421 213.6971
  -2.266  -0.0595   0.00703   0.00091  -0.0213   0.7247   0.3815  53.6782 214.5030
  -2.181  -0.0499   0.00700   0.00090  -0.0212   0.7236   0.3893  53.7999 215.2773
  -2.010  -0.0306   0.00694   0.00089  -0.0212   0.7216   0.4047  54.0159 216.7740
  -1.925  -0.0209   0.00689   0.00089  -0.0212   0.7203   0.4117  54.1572 217.4561
  -1.839  -0.0111   0.00686   0.00088  -0.0212   0.7189   0.4185  54.3011 218.1180
  -1.754  -0.0014   0.00682   0.00088  -0.0212   0.7176   0.4251  54.4416 218.7587
  -1.668   0.0083   0.00679   0.00087  -0.0212   0.7163   0.4311  54.5761 219.3391
  -1.583   0.0181   0.00677   0.00086  -0.0212   0.7151   0.4372  54.7029 219.9287
  -1.498   0.0278   0.00674   0.00086  -0.0212   0.7140   0.4429  54.8196 220.4787
  -1.327   0.0472   0.00669   0.00084  -0.0212   0.7119   0.4548  55.0445 221.6132
  -1.241   0.0570   0.00666   0.00084  -0.0213   0.7105   0.4605  55.1921 222.1693
  -1.156   0.0668   0.00663   0.00084  -0.0213   0.7091   0.4665  55.3383 222.7444
  -1.070   0.0765   0.00660   0.00084  -0.0213   0.7077   0.4722  55.4811 223.2813
  -0.985   0.0863   0.00658   0.00083  -0.0213   0.7064   0.4780  55.6188 223.8380
  -0.899   0.0960   0.00655   0.00082  -0.0213   0.7051   0.4833  55.7487 224.3459
  -0.814   0.1058   0.00653   0.00082  -0.0213   0.7040   0.4889  55.8701 224.8841
  -0.729   0.1155   0.00651   0.00081  -0.0213   0.7029   0.4942  55.9851 225.3904
  -0.643   0.1253   0.00649   0.00081  -0.0213   0.7012   0.4999  56.1565 225.9374
  -0.558   0.1350   0.00645   0.00080  -0.0213   0.6993   0.5056  56.3610 226.4754
  -0.387   0.1544   0.00639   0.00078  -0.0213   0.6952   0.5176  56.7848 227.6291
  -0.301   0.1641   0.00637   0.00076  -0.0213   0.6934   0.5236  56.9730 228.2025
  -0.216   0.1738   0.00634   0.00076  -0.0213   0.6909   0.5300  57.2291 228.8160
  -0.131   0.1835   0.00630   0.00075  -0.0213   0.6883   0.5362  57.4988 229.4112
   0.126   0.2125   0.00621   0.00071  -0.0213   0.6802   0.5560  58.3277 231.3086
   0.296   0.2318   0.00615   0.00068  -0.0213   0.6744   0.5710  58.9218 232.7544
   0.382   0.2414   0.00612   0.00067  -0.0213   0.6713   0.5793  59.2328 233.5603
   0.467   0.2510   0.00608   0.00066  -0.0213   0.6677   0.5886  59.5950 234.4578
   0.553   0.2604   0.00604   0.00064  -0.0212   0.6642   0.5990  59.9457 235.4687
   0.638   0.2699   0.00599   0.00062  -0.0212   0.6603   0.6107  60.3438 236.6081
   0.724   0.2792   0.00594   0.00060  -0.0211   0.6562   0.6242  60.7508 237.9381
   0.809   0.2883   0.00587   0.00058  -0.0210   0.6523   0.6415  61.1439 239.6489
   0.894   0.2969   0.00574   0.00054  -0.0208   0.6479   0.6692  61.5843 242.4418
   0.980   0.2993   0.00522   0.00060  -0.0192   0.6446   0.8398  61.9190 261.6330
   1.065   0.3077   0.00520   0.00064  -0.0188   0.6401   0.8675  62.3586 265.3911
   1.151   0.3168   0.00522   0.00065  -0.0187   0.6350   0.8792  62.8707 267.0607
   1.236   0.3259   0.00523   0.00067  -0.0185   0.6294   0.8874  63.4235 268.2892
   1.322   0.3349   0.00526   0.00067  -0.0183   0.6234   0.8940  64.0117 269.3075
   1.407   0.3441   0.00528   0.00068  -0.0181   0.6163   0.8996  64.7098 270.1755
   1.492   0.3532   0.00532   0.00069  -0.0180   0.6086   0.9046  65.4619 270.9877
   1.578   0.3621   0.00536   0.00070  -0.0178   0.6003   0.9090  66.2779 271.7097
   1.663   0.3710   0.00540   0.00071  -0.0176   0.5916   0.9132  67.1171 272.4145
   1.749   0.3799   0.00546   0.00072  -0.0174   0.5820   0.9173  68.0462 273.1165
   1.834   0.3886   0.00551   0.00073  -0.0172   0.5709   0.9210  69.1191 273.7632
   1.920   0.3973   0.00558   0.00075  -0.0169   0.5589   0.9243  70.2772 274.3524
   2.005   0.4059   0.00566   0.00076  -0.0167   0.5455   0.9278  71.5563 274.9864
   2.091   0.4142   0.00574   0.00078  -0.0164   0.5319   0.9305  72.8647 275.5002
   2.176   0.4226   0.00584   0.00081  -0.0161   0.5170   0.9335  74.2837 276.0772
   2.261   0.4308   0.00594   0.00084  -0.0158   0.5014   0.9362  75.7727 276.5918
   2.347   0.4390   0.00604   0.00087  -0.0155   0.4857   0.9389  77.2682 277.1333
   2.432   0.4470   0.00616   0.00090  -0.0152   0.4692   0.9413  78.8515 277.6190
   2.518   0.4551   0.00628   0.00094  -0.0149   0.4518   0.9437  80.5162 278.1108
   2.603   0.4630   0.00640   0.00098  -0.0145   0.4347   0.9458  82.1511 278.5492
   2.688   0.4710   0.00652   0.00101  -0.0142   0.4177   0.9482  83.7927 279.0554
   2.774   0.4790   0.00664   0.00106  -0.0139   0.4028   0.9502  85.2382 279.4830
   2.945   0.4949   0.00686   0.00113  -0.0132   0.3755   0.9543  87.9108 280.4068
   3.030   0.5029   0.00696   0.00117  -0.0129   0.3633   0.9566  89.1176 280.9342
   3.116   0.5109   0.00706   0.00121  -0.0125   0.3518   0.9584  90.2658 281.3707
   3.201   0.5188   0.00716   0.00124  -0.0122   0.3400   0.9606  91.4507 281.8982
   3.286   0.5268   0.00727   0.00128  -0.0118   0.3278   0.9623  92.6834 282.3342
   3.372   0.5347   0.00738   0.00132  -0.0115   0.3161   0.9643  93.8823 282.8305
   3.457   0.5427   0.00749   0.00136  -0.0112   0.3044   0.9659  95.0887 283.2622
   3.543   0.5509   0.00759   0.00139  -0.0109   0.2933   0.9676  96.2423 283.7065
   3.628   0.5592   0.00769   0.00143  -0.0107   0.2826   0.9692  97.3738 284.1388
   3.714   0.5677   0.00780   0.00146  -0.0105   0.2711   0.9705  98.6012 284.5082
   3.799   0.5758   0.00791   0.00150  -0.0102   0.2594   0.9722  99.8593 284.9738
   3.884   0.5845   0.00803   0.00154  -0.0101   0.2453   0.9732 101.4073 285.2965
   3.970   0.5929   0.00817   0.00158  -0.0099   0.2286   0.9745 103.2821 285.6855
   4.055   0.6006   0.00837   0.00165  -0.0097   0.2046   0.9760 106.0700 286.1203
   4.141   0.6084   0.00863   0.00174  -0.0095   0.1763   0.9771 109.5137 286.4860
   4.226   0.6161   0.00884   0.00182  -0.0092   0.1583   0.9786 111.8164 286.9572
   4.312   0.6252   0.00901   0.00190  -0.0092   0.1463   0.9795 113.4131 287.2552
   4.397   0.6344   0.00914   0.00196  -0.0093   0.1379   0.9804 114.5651 287.5725
   4.482   0.6433   0.00926   0.00202  -0.0092   0.1313   0.9816 115.4845 287.9887
   4.568   0.6534   0.00937   0.00207  -0.0094   0.1256   0.9822 116.2965 288.2237
   4.653   0.6633   0.00948   0.00212  -0.0096   0.1207   0.9829 117.0116 288.4831
   4.739   0.6731   0.00957   0.00216  -0.0097   0.1163   0.9838 117.6577 288.7895
   4.824   0.6830   0.00966   0.00221  -0.0098   0.1123   0.9846 118.2510 289.0899
   4.910   0.6934   0.00976   0.00225  -0.0101   0.1083   0.9851 118.8661 289.2909
   4.995   0.7039   0.00985   0.00230  -0.0104   0.1048   0.9857 119.4114 289.5316
   5.080   0.7139   0.00995   0.00234  -0.0106   0.1014   0.9864 119.9406 289.8454
   5.166   0.7245   0.01003   0.00238  -0.0109   0.0982   0.9871 120.4591 290.1084
   5.251   0.7353   0.01014   0.00244  -0.0112   0.0948   0.9875 121.0023 290.3005
   5.337   0.7462   0.01022   0.00248  -0.0116   0.0915   0.9880 121.5469 290.5207
   5.422   0.7567   0.01033   0.00253  -0.0119   0.0883   0.9886 122.0778 290.7806
   5.508   0.7672   0.01042   0.00257  -0.0122   0.0852   0.9892 122.6066 291.0364
   5.593   0.7782   0.01053   0.00262  -0.0126   0.0822   0.9895 123.1158 291.1686
   5.678   0.7892   0.01062   0.00267  -0.0130   0.0792   0.9897 123.6380 291.3008
   5.764   0.8000   0.01073   0.00272  -0.0134   0.0766   0.9901 124.1152 291.4686
   5.849   0.8107   0.01082   0.00277  -0.0138   0.0739   0.9905 124.6055 291.6634
   5.935   0.8210   0.01093   0.00282  -0.0140   0.0713   0.9911 125.0650 291.9389
   6.020   0.8319   0.01103   0.00287  -0.0144   0.0689   0.9914 125.5188 292.1112
   6.106   0.8426   0.01115   0.00293  -0.0148   0.0666   0.9917 125.9542 292.2776
   6.191   0.8536   0.01124   0.00298  -0.0152   0.0645   0.9921 126.3601 292.4733
   6.276   0.8643   0.01134   0.00304  -0.0156   0.0624   0.9925 126.7815 292.7117
   6.362   0.8747   0.01145   0.00309  -0.0159   0.0605   0.9931 127.1535 293.0167
   6.447   0.8857   0.01155   0.00315  -0.0163   0.0586   0.9933 127.5465 293.1972
   6.533   0.8964   0.01168   0.00321  -0.0167   0.0567   0.9937 127.9243 293.4218
   6.618   0.9071   0.01178   0.00327  -0.0171   0.0551   0.9941 128.2622 293.6846
   6.704   0.9174   0.01189   0.00333  -0.0174   0.0535   0.9947 128.6087 294.0005
   6.789   0.9280   0.01202   0.00340  -0.0177   0.0519   0.9950 128.9468 294.2309
   6.874   0.9388   0.01212   0.00346  -0.0181   0.0505   0.9953 129.2528 294.4834
   6.960   0.9494   0.01223   0.00352  -0.0185   0.0490   0.9958 129.5818 294.7828
   7.045   0.9598   0.01236   0.00359  -0.0188   0.0475   0.9962 129.8956 295.1079
   7.131   0.9705   0.01247   0.00366  -0.0192   0.0463   0.9966 130.1814 295.4010
   7.216   0.9812   0.01258   0.00372  -0.0196   0.0450   0.9970 130.4856 295.7313
   7.301   0.9918   0.01272   0.00379  -0.0200   0.0436   0.9974 130.7882 296.1091
   7.387   1.0024   0.01285   0.00387  -0.0204   0.0424   0.9978 131.0746 296.5057
   7.472   1.0133   0.01296   0.00393  -0.0208   0.0413   0.9982 131.3528 296.9306
   7.558   1.0241   0.01309   0.00401  -0.0212   0.0401   0.9986 131.6373 297.3993
   7.643   1.0347   0.01325   0.00410  -0.0216   0.0390   0.9990 131.9130 297.9729
   7.729   1.0459   0.01337   0.00417  -0.0221   0.0380   0.9994 132.1571 298.6678
   7.814   1.0573   0.01349   0.00424  -0.0227   0.0370   0.9998 132.4124 299.6517
   7.899   1.0661   0.01360   0.00431  -0.0227   0.0361   1.0000 132.6374 301.0000
   7.985   1.0714   0.01372   0.00436  -0.0219   0.0354   1.0000 132.8147 301.0000
   8.070   1.0762   0.01385   0.00443  -0.0211   0.0347   1.0000 132.9916 301.0000
   8.156   1.0817   0.01394   0.00447  -0.0204   0.0341   1.0000 133.1363 301.0000
   8.241   1.0871   0.01402   0.00452  -0.0197   0.0336   1.0000 133.2957 301.0000
   8.327   1.0921   0.01412   0.00456  -0.0189   0.0329   1.0000 133.4587 301.0000
   8.412   1.0970   0.01422   0.00461  -0.0181   0.0324   1.0000 133.6151 301.0000
   8.498   1.1016   0.01433   0.00466  -0.0173   0.0318   1.0000 133.7636 301.0000
   8.583   1.1060   0.01446   0.00472  -0.0164   0.0313   1.0000 133.9127 301.0000
   8.668   1.1107   0.01459   0.00479  -0.0155   0.0308   1.0000 134.0493 301.0000
   8.754   1.1162   0.01468   0.00483  -0.0148   0.0303   1.0000 134.1721 301.0000
   8.839   1.1217   0.01478   0.00489  -0.0142   0.0299   1.0000 134.3052 301.0000
   8.925   1.1274   0.01489   0.00494  -0.0135   0.0294   1.0000 134.4429 301.0000
   9.010   1.1335   0.01502   0.00501  -0.0130   0.0289   1.0000 134.5810 301.0000
   9.095   1.1397   0.01516   0.00508  -0.0125   0.0284   1.0000 134.7170 301.0000
   9.181   1.1460   0.01532   0.00517  -0.0121   0.0279   1.0000 134.8560 301.0000
   9.266   1.1520   0.01553   0.00528  -0.0116   0.0274   1.0000 135.0062 301.0000
   9.352   1.1595   0.01563   0.00535  -0.0113   0.0271   1.0000 135.1066 301.0000
   9.437   1.1668   0.01576   0.00542  -0.0110   0.0267   1.0000 135.2256 301.0000
   9.523   1.1741   0.01589   0.00549  -0.0108   0.0262   1.0000 135.3517 301.0000
   9.608   1.1813   0.01603   0.00557  -0.0105   0.0258   1.0000 135.4772 301.0000
   9.694   1.1885   0.01618   0.00566  -0.0102   0.0254   1.0000 135.6005 301.0000
   9.779   1.1955   0.01634   0.00575  -0.0099   0.0250   1.0000 135.7184 301.0000
   9.864   1.2022   0.01652   0.00585  -0.0096   0.0246   1.0000 135.8335 301.0000
   9.950   1.2085   0.01673   0.00597  -0.0093   0.0242   1.0000 135.9546 301.0000
  10.035   1.2154   0.01691   0.00607  -0.0089   0.0239   1.0000 136.0511 301.0000
  10.121   1.2226   0.01705   0.00616  -0.0087   0.0237   1.0000 136.1397 301.0000
  10.206   1.2297   0.01721   0.00625  -0.0084   0.0234   1.0000 136.2349 301.0000
  10.291   1.2367   0.01736   0.00634  -0.0082   0.0231   1.0000 136.3319 301.0000
  10.377   1.2436   0.01752   0.00643  -0.0079   0.0228   1.0000 136.4271 301.0000
  10.462   1.2504   0.01769   0.00653  -0.0076   0.0225   1.0000 136.5205 301.0000
  10.548   1.2570   0.01787   0.00663  -0.0073   0.0222   1.0000 136.6113 301.0000
  10.633   1.2635   0.01807   0.00674  -0.0070   0.0219   1.0000 136.6996 301.0000
  10.719   1.2696   0.01827   0.00686  -0.0066   0.0216   1.0000 136.7879 301.0000
  10.804   1.2753   0.01851   0.00699  -0.0062   0.0214   1.0000 136.8802 301.0000
  10.889   1.2800   0.01880   0.00716  -0.0056   0.0211   1.0000 136.9786 301.0000
  10.975   1.2856   0.01899   0.00727  -0.0051   0.0209   1.0000 137.0403 301.0000
  11.060   1.2914   0.01916   0.00737  -0.0047   0.0207   1.0000 137.0988 301.0000
  11.146   1.2971   0.01934   0.00748  -0.0042   0.0205   1.0000 137.1634 301.0000
  11.231   1.3025   0.01953   0.00759  -0.0037   0.0203   1.0000 137.2319 301.0000
  11.317   1.3079   0.01973   0.00771  -0.0032   0.0201   1.0000 137.3026 301.0000
  11.402   1.3132   0.01994   0.00783  -0.0028   0.0199   1.0000 137.3739 301.0000
  11.487   1.3184   0.02016   0.00796  -0.0023   0.0197   1.0000 137.4447 301.0000
  11.573   1.3236   0.02038   0.00809  -0.0018   0.0195   1.0000 137.5143 301.0000
  11.658   1.3287   0.02062   0.00822  -0.0014   0.0193   1.0000 137.5830 301.0000
  11.744   1.3336   0.02087   0.00837  -0.0009   0.0191   1.0000 137.6510 301.0000
  11.829   1.3383   0.02114   0.00853  -0.0005   0.0189   1.0000 137.7185 301.0000
  11.915   1.3426   0.02144   0.00871  -0.0000   0.0187   1.0000 137.7870 301.0000
  12.000   1.3464   0.02178   0.00891   0.0005   0.0185   1.0000 137.8584 301.0000
