  
       XFOIL         Version 6.99
  
 Calculated polar for: Repaneled_Airfoil                               
  
 1 1 Reynolds number fixed          Mach number fixed         
  
 xtrf =   1.000 (top)        1.000 (bottom)  
 Mach =   0.000     Re =     1.000 e 6     Ncrit =   9.000  9.000
  
   alpha    CL        CD       CDp       CM     Top_Xtr  Bot_Xtr  Top_Itr  Bot_Itr
  ------ -------- --------- --------- -------- -------- -------- -------- --------
  -5.000  -0.2781   0.01027   0.00268  -0.0992   0.5763   0.2440  68.7042 200.3543
  -4.915  -0.2686   0.01032   0.00272  -0.0991   0.5743   0.2447  68.9032 200.4331
  -4.829  -0.2589   0.01037   0.00277  -0.0991   0.5723   0.2455  69.0963 200.5239
  -4.744  -0.2491   0.01042   0.00281  -0.0991   0.5700   0.2464  69.3126 200.6174
  -4.658  -0.2394   0.01045   0.00283  -0.0991   0.5677   0.2471  69.5350 200.7024
  -4.573  -0.2299   0.01048   0.00284  -0.0991   0.5655   0.2478  69.7462 200.7740
  -4.487  -0.2204   0.01050   0.00284  -0.0991   0.5636   0.2483  69.9329 200.8371
  -4.402  -0.2108   0.01053   0.00283  -0.0991   0.5618   0.2489  70.1045 200.8969
  -4.317  -0.2010   0.01056   0.00283  -0.0991   0.5599   0.2494  70.2909 200.9541
  -4.231  -0.1914   0.01060   0.00283  -0.0991   0.5578   0.2498  70.4907 201.0013
  -4.146  -0.1821   0.01050   0.00283  -0.0990   0.5557   0.2505  70.6950 201.0785
  -4.060  -0.1728   0.01048   0.00284  -0.0990   0.5536   0.2510  70.8972 201.1305
  -3.975  -0.1634   0.01047   0.00284  -0.0989   0.5515   0.2514  71.0960 201.1703
  -3.889  -0.1538   0.01044   0.00283  -0.0989   0.5493   0.2516  71.3089 201.2004
  -3.804  -0.1443   0.01042   0.00282  -0.0989   0.5471   0.2519  71.5173 201.2243
  -3.719  -0.1348   0.01040   0.00280  -0.0989   0.5450   0.2521  71.7134 201.2471
  -3.633  -0.1255   0.01038   0.00278  -0.0988   0.5432   0.2523  71.8927 201.2692
  -3.548  -0.1160   0.01036   0.00276  -0.0988   0.5413   0.2525  72.0681 201.2915
  -3.462  -0.1065   0.01033   0.00274  -0.0988   0.5393   0.2527  72.2657 201.3146
  -3.377  -0.0969   0.01031   0.00272  -0.0987   0.5371   0.2529  72.4781 201.3399
  -3.292  -0.0875   0.01030   0.00270  -0.0987   0.5348   0.2532  72.6935 201.3667
  -3.206  -0.0781   0.01029   0.00269  -0.0987   0.5327   0.2534  72.9002 201.3949
  -3.121  -0.0687   0.01028   0.00267  -0.0986   0.5306   0.2537  73.0978 201.4243
  -3.035  -0.0591   0.01026   0.00265  -0.0986   0.5284   0.2540  73.3097 201.4544
  -2.950  -0.0496   0.01025   0.00264  -0.0986   0.5260   0.2542  73.5388 201.4847
  -2.864  -0.0402   0.01024   0.00261  -0.0985   0.5234   0.2545  73.7832 201.5148
  -2.779  -0.0310   0.01023   0.00259  -0.0985   0.5209   0.2548  74.0211 201.5439
  -2.693  -0.0214   0.01021   0.00257  -0.0985   0.5182   0.2550  74.2797 201.5721
  -2.608  -0.0119   0.01019   0.00254  -0.0984   0.5152   0.2553  74.5700 201.5984
  -2.523  -0.0026   0.01018   0.00251  -0.0984   0.5122   0.2555  74.8615 201.6240
  -2.437   0.0067   0.01016   0.00249  -0.0983   0.5093   0.2557  75.1387 201.6498
  -2.352   0.0162   0.01014   0.00246  -0.0983   0.5061   0.2560  75.4396 201.6759
  -2.266   0.0255   0.01013   0.00244  -0.0982   0.5029   0.2562  75.7407 201.7019
  -2.181   0.0348   0.01012   0.00241  -0.0981   0.4999   0.2565  76.0303 201.7276
  -2.095   0.0443   0.01010   0.00238  -0.0981   0.4965   0.2567  76.3571 201.7533
  -2.010   0.0536   0.01010   0.00236  -0.0981   0.4926   0.2569  76.7337 201.7784
  -1.925   0.0628   0.01009   0.00233  -0.0980   0.4885   0.2571  77.1258 201.8031
  -1.839   0.0721   0.01008   0.00230  -0.0979   0.4831   0.2574  77.6329 201.8274
  -1.754   0.0812   0.01009   0.00227  -0.0978   0.4778   0.2576  78.1418 201.8509
  -1.668   0.0904   0.01009   0.00225  -0.0977   0.4717   0.2578  78.7309 201.8738
  -1.583   0.0995   0.01010   0.00222  -0.0976   0.4650   0.2580  79.3729 201.8957
  -1.498   0.1084   0.01011   0.00220  -0.0975   0.4566   0.2582  80.1687 201.9165
  -1.412   0.1172   0.01014   0.00217  -0.0973   0.4462   0.2584  81.1671 201.9362
  -1.327   0.1258   0.01019   0.00215  -0.0971   0.4327   0.2585  82.4746 201.9546
  -1.241   0.1339   0.01027   0.00213  -0.0968   0.4126   0.2587  84.4164 201.9713
  -1.156   0.1395   0.01054   0.00214  -0.0961   0.3578   0.2588  89.7920 201.9853
  -1.070   0.1421   0.01126   0.00235  -0.0949   0.1976   0.2589 107.0350 201.9961
  -0.985   0.1510   0.01128   0.00235  -0.0948   0.1889   0.2592 108.0862 202.0273
  -0.899   0.1602   0.01127   0.00235  -0.0948   0.1842   0.2595 108.6596 202.0601
  -0.814   0.1694   0.01128   0.00235  -0.0947   0.1807   0.2598 109.0990 202.0892
  -0.729   0.1787   0.01127   0.00235  -0.0947   0.1777   0.2600 109.4677 202.1164
  -0.643   0.1880   0.01128   0.00235  -0.0946   0.1750   0.2602 109.8077 202.1421
  -0.558   0.1974   0.01129   0.00235  -0.0946   0.1727   0.2605 110.1020 202.1671
  -0.472   0.2068   0.01129   0.00235  -0.0945   0.1703   0.2607 110.4016 202.1923
  -0.387   0.2162   0.01130   0.00235  -0.0945   0.1680   0.2610 110.7005 202.2187
  -0.301   0.2256   0.01132   0.00235  -0.0945   0.1657   0.2612 110.9841 202.2458
  -0.216   0.2350   0.01132   0.00235  -0.0944   0.1636   0.2615 111.2563 202.2738
  -0.131   0.2445   0.01133   0.00235  -0.0944   0.1614   0.2617 111.5415 202.3023
  -0.045   0.2539   0.01135   0.00235  -0.0944   0.1594   0.2620 111.8049 202.3312
   0.040   0.2633   0.01137   0.00235  -0.0943   0.1575   0.2623 112.0496 202.3602
   0.126   0.2727   0.01138   0.00235  -0.0943   0.1557   0.2625 112.2918 202.3895
   0.211   0.2822   0.01139   0.00235  -0.0943   0.1538   0.2628 112.5413 202.4186
   0.296   0.2916   0.01140   0.00234  -0.0943   0.1520   0.2631 112.7750 202.4474
   0.382   0.3010   0.01143   0.00234  -0.0942   0.1503   0.2633 113.0033 202.4757
   0.467   0.3105   0.01143   0.00234  -0.0942   0.1487   0.2636 113.2146 202.5039
   0.553   0.3199   0.01144   0.00233  -0.0942   0.1471   0.2639 113.4411 202.5326
   0.638   0.3294   0.01146   0.00233  -0.0941   0.1454   0.2641 113.6629 202.5615
   0.724   0.3388   0.01148   0.00233  -0.0941   0.1439   0.2644 113.8725 202.5908
   0.809   0.3482   0.01150   0.00232  -0.0941   0.1423   0.2647 114.0825 202.6205
   0.894   0.3577   0.01150   0.00232  -0.0941   0.1407   0.2649 114.3097 202.6505
   0.980   0.3671   0.01151   0.00231  -0.0940   0.1389   0.2652 114.5515 202.6807
   1.065   0.3765   0.01153   0.00231  -0.0940   0.1372   0.2655 114.7868 202.7108
   1.151   0.3859   0.01156   0.00230  -0.0940   0.1355   0.2658 115.0205 202.7407
   1.236   0.3954   0.01157   0.00230  -0.0940   0.1339   0.2661 115.2476 202.7706
   1.322   0.4048   0.01158   0.00229  -0.0939   0.1322   0.2663 115.4837 202.8000
   1.407   0.4142   0.01160   0.00229  -0.0939   0.1307   0.2666 115.7050 202.8289
   1.492   0.4236   0.01163   0.00228  -0.0939   0.1292   0.2668 115.9190 202.8569
   1.578   0.4330   0.01165   0.00228  -0.0939   0.1277   0.2671 116.1259 202.8838
   1.663   0.4425   0.01167   0.00228  -0.0938   0.1262   0.2673 116.3454 202.9094
   1.749   0.4519   0.01169   0.00227  -0.0938   0.1246   0.2676 116.5704 202.9337
   1.834   0.4613   0.01172   0.00227  -0.0938   0.1231   0.2678 116.7909 202.9574
   1.920   0.4707   0.01176   0.00227  -0.0937   0.1216   0.2680 117.0141 202.9802
   2.005   0.4801   0.01178   0.00227  -0.0937   0.1201   0.2682 117.2339 203.0025
   2.091   0.4895   0.01176   0.00227  -0.0937   0.1185   0.2686 117.4708 203.0508
   2.176   0.4988   0.01176   0.00227  -0.0937   0.1169   0.2690 117.7004 203.0929
   2.261   0.5081   0.01178   0.00227  -0.0936   0.1154   0.2694 117.9226 203.1315
   2.347   0.5174   0.01179   0.00228  -0.0936   0.1140   0.2697 118.1393 203.1686
   2.432   0.5268   0.01180   0.00228  -0.0936   0.1124   0.2701 118.3793 203.2053
   2.518   0.5362   0.01182   0.00229  -0.0936   0.1108   0.2704 118.6234 203.2420
   2.603   0.5455   0.01185   0.00229  -0.0935   0.1093   0.2708 118.8551 203.2787
   2.688   0.5548   0.01189   0.00230  -0.0935   0.1078   0.2711 119.0818 203.3157
   2.774   0.5642   0.01190   0.00231  -0.0935   0.1062   0.2715 119.3220 203.3528
   2.859   0.5735   0.01193   0.00231  -0.0934   0.1047   0.2718 119.5684 203.3895
   2.945   0.5828   0.01196   0.00231  -0.0934   0.1031   0.2721 119.8050 203.4255
   3.030   0.5921   0.01201   0.00232  -0.0934   0.1016   0.2725 120.0391 203.4600
   3.116   0.6015   0.01202   0.00232  -0.0933   0.1002   0.2728 120.2757 203.4939
   3.201   0.6108   0.01205   0.00233  -0.0933   0.0986   0.2731 120.5276 203.5282
   3.286   0.6201   0.01209   0.00233  -0.0933   0.0971   0.2734 120.7652 203.5631
   3.372   0.6292   0.01214   0.00234  -0.0932   0.0957   0.2738 120.9947 203.5979
   3.457   0.6386   0.01216   0.00235  -0.0932   0.0943   0.2741 121.2139 203.6334
   3.543   0.6479   0.01219   0.00235  -0.0931   0.0928   0.2744 121.4635 203.6690
   3.628   0.6571   0.01223   0.00236  -0.0931   0.0913   0.2747 121.7169 203.7045
   3.714   0.6663   0.01228   0.00236  -0.0930   0.0897   0.2751 121.9723 203.7394
   3.799   0.6756   0.01231   0.00237  -0.0930   0.0882   0.2754 122.2272 203.7741
   3.884   0.6848   0.01234   0.00238  -0.0929   0.0866   0.2757 122.5062 203.8080
   3.970   0.6940   0.01238   0.00238  -0.0929   0.0850   0.2760 122.7684 203.8410
   4.055   0.7030   0.01245   0.00239  -0.0928   0.0836   0.2763 123.0198 203.8725
   4.141   0.7123   0.01248   0.00240  -0.0928   0.0822   0.2766 123.2662 203.9029
   4.226   0.7215   0.01252   0.00241  -0.0927   0.0806   0.2769 123.5357 203.9313
   4.312   0.7306   0.01257   0.00242  -0.0927   0.0792   0.2771 123.7925 203.9576
   4.397   0.7396   0.01263   0.00243  -0.0926   0.0778   0.2773 124.0367 203.9815
   4.482   0.7488   0.01267   0.00244  -0.0925   0.0764   0.2776 124.2813 204.0088
   4.568   0.7579   0.01269   0.00246  -0.0925   0.0750   0.2781 124.5401 204.0584
   4.653   0.7670   0.01273   0.00247  -0.0924   0.0736   0.2785 124.7849 204.1034
   4.739   0.7759   0.01278   0.00249  -0.0923   0.0723   0.2789 125.0231 204.1448
   4.824   0.7850   0.01281   0.00251  -0.0923   0.0711   0.2792 125.2589 204.1847
   4.910   0.7941   0.01286   0.00253  -0.0922   0.0697   0.2796 125.5219 204.2233
   4.995   0.8030   0.01292   0.00255  -0.0921   0.0683   0.2800 125.7818 204.2613
   5.080   0.8118   0.01299   0.00257  -0.0920   0.0669   0.2803 126.0403 204.2991
   5.166   0.8209   0.01302   0.00259  -0.0919   0.0656   0.2807 126.3004 204.3379
   5.251   0.8299   0.01308   0.00261  -0.0918   0.0641   0.2811 126.5819 204.3770
   5.337   0.8387   0.01314   0.00263  -0.0917   0.0628   0.2814 126.8452 204.4167
   5.422   0.8475   0.01321   0.00266  -0.0916   0.0615   0.2818 127.0900 204.4570
   5.508   0.8565   0.01326   0.00268  -0.0915   0.0602   0.2822 127.3482 204.4983
   5.593   0.8653   0.01332   0.00270  -0.0914   0.0589   0.2826 127.6170 204.5402
   5.678   0.8740   0.01340   0.00273  -0.0913   0.0576   0.2830 127.8729 204.5823
   5.764   0.8827   0.01347   0.00275  -0.0912   0.0565   0.2834 128.1103 204.6252
   5.849   0.8916   0.01353   0.00278  -0.0911   0.0553   0.2838 128.3537 204.6683
   5.935   0.9003   0.01360   0.00281  -0.0909   0.0542   0.2842 128.5996 204.7115
   6.020   0.9088   0.01368   0.00284  -0.0908   0.0531   0.2846 128.8330 204.7543
   6.106   0.9173   0.01377   0.00287  -0.0906   0.0520   0.2850 129.0575 204.7966
   6.191   0.9261   0.01383   0.00290  -0.0905   0.0510   0.2854 129.2756 204.8384
   6.276   0.9347   0.01390   0.00293  -0.0904   0.0499   0.2858 129.5079 204.8788
   6.362   0.9432   0.01398   0.00296  -0.0902   0.0489   0.2862 129.7307 204.9172
   6.447   0.9515   0.01409   0.00300  -0.0900   0.0479   0.2865 129.9454 204.9526
   6.533   0.9601   0.01417   0.00304  -0.0898   0.0471   0.2868 130.1405 204.9858
   6.618   0.9687   0.01423   0.00307  -0.0897   0.0462   0.2873 130.3485 205.0340
   6.704   0.9772   0.01430   0.00311  -0.0895   0.0453   0.2878 130.5591 205.0935
   6.789   0.9855   0.01438   0.00315  -0.0894   0.0444   0.2884 130.7606 205.1489
   6.874   0.9935   0.01449   0.00320  -0.0891   0.0435   0.2889 130.9662 205.2012
   6.960   1.0020   0.01457   0.00324  -0.0889   0.0427   0.2894 131.1420 205.2537
   7.045   1.0104   0.01464   0.00328  -0.0888   0.0420   0.2899 131.3317 205.3061
   7.131   1.0187   0.01473   0.00332  -0.0886   0.0411   0.2903 131.5278 205.3582
   7.216   1.0268   0.01483   0.00337  -0.0883   0.0403   0.2909 131.7205 205.4116
   7.301   1.0346   0.01496   0.00342  -0.0881   0.0395   0.2914 131.9202 205.4669
   7.387   1.0427   0.01506   0.00347  -0.0878   0.0388   0.2920 132.0967 205.5266
   7.472   1.0511   0.01513   0.00351  -0.0877   0.0380   0.2925 132.2837 205.5879
   7.558   1.0593   0.01522   0.00355  -0.0874   0.0373   0.2931 132.4786 205.6511
   7.643   1.0674   0.01532   0.00360  -0.0872   0.0365   0.2937 132.6681 205.7144
   7.729   1.0752   0.01543   0.00365  -0.0869   0.0358   0.2943 132.8476 205.7763
   7.814   1.0827   0.01557   0.00371  -0.0866   0.0351   0.2949 133.0239 205.8362
   7.899   1.0909   0.01565   0.00375  -0.0864   0.0346   0.2955 133.1695 205.8950
   7.985   1.0990   0.01575   0.00380  -0.0862   0.0340   0.2960 133.3289 205.9492
   8.070   1.1070   0.01585   0.00384  -0.0859   0.0334   0.2964 133.4902 205.9976
   8.156   1.1148   0.01595   0.00389  -0.0857   0.0328   0.2972 133.6469 206.0764
   8.241   1.1224   0.01606   0.00395  -0.0854   0.0322   0.2979 133.8012 206.1505
   8.327   1.1296   0.01622   0.00402  -0.0850   0.0316   0.2986 133.9692 206.2196
   8.412   1.1375   0.01632   0.00408  -0.0847   0.0311   0.2993 134.0988 206.2909
   8.498   1.1454   0.01641   0.00413  -0.0845   0.0306   0.3000 134.2351 206.3634
   8.583   1.1531   0.01652   0.00419  -0.0842   0.0301   0.3007 134.3747 206.4374
   8.668   1.1607   0.01663   0.00425  -0.0839   0.0296   0.3014 134.5128 206.5123
   8.754   1.1682   0.01675   0.00431  -0.0836   0.0292   0.3021 134.6472 206.5881
   8.839   1.1755   0.01689   0.00437  -0.0832   0.0287   0.3029 134.7787 206.6645
   8.925   1.1823   0.01706   0.00446  -0.0828   0.0282   0.3036 134.9184 206.7398
   9.010   1.1893   0.01722   0.00454  -0.0824   0.0278   0.3043 135.0401 206.8174
   9.095   1.1970   0.01732   0.00459  -0.0821   0.0274   0.3051 135.1418 206.8933
   9.181   1.2045   0.01743   0.00465  -0.0817   0.0270   0.3058 135.2559 206.9659
   9.266   1.2119   0.01755   0.00471  -0.0814   0.0267   0.3066 135.3731 207.0530
   9.352   1.2191   0.01766   0.00477  -0.0810   0.0263   0.3076 135.4880 207.1556
   9.523   1.2327   0.01791   0.00490  -0.0801   0.0255   0.3095 135.7052 207.3560
   9.608   1.2391   0.01805   0.00496  -0.0796   0.0252   0.3105 135.8080 207.4610
   9.694   1.2450   0.01822   0.00505  -0.0790   0.0248   0.3116 135.9138 207.5701
   9.779   1.2506   0.01841   0.00514  -0.0783   0.0245   0.3127 136.0162 207.6837
   9.864   1.2573   0.01852   0.00520  -0.0778   0.0243   0.3139 136.0896 207.8066
   9.950   1.2639   0.01864   0.00526  -0.0774   0.0240   0.3151 136.1724 207.9298
  10.035   1.2706   0.01878   0.00533  -0.0769   0.0237   0.3165 136.2601 208.0696
  10.121   1.2774   0.01891   0.00541  -0.0765   0.0235   0.3181 136.3488 208.2358
  10.206   1.2842   0.01905   0.00549  -0.0761   0.0232   0.3199 136.4361 208.4188
  10.291   1.2910   0.01919   0.00557  -0.0756   0.0229   0.3218 136.5214 208.6173
  10.377   1.2976   0.01935   0.00565  -0.0752   0.0227   0.3239 136.6049 208.8271
  10.548   1.3107   0.01968   0.00583  -0.0743   0.0221   0.3288 136.7688 209.3256
  10.633   1.3168   0.01988   0.00594  -0.0738   0.0219   0.3319 136.8551 209.6450
  10.804   1.3285   0.02032   0.00620  -0.0727   0.0214   0.3408 137.0237 210.5459
  10.889   1.3354   0.02045   0.00630  -0.0723   0.0212   0.3504 137.0786 211.5038
  10.975   1.3433   0.02048   0.00642  -0.0723   0.0210   0.4490 137.1440 221.1321
  11.060   1.3516   0.02036   0.00668  -0.0724   0.0208   0.6873 137.2173 244.3427
  11.146   1.3579   0.02055   0.00679  -0.0719   0.0206   0.6956 137.2869 245.1979
  11.231   1.3642   0.02074   0.00691  -0.0714   0.0204   0.7016 137.3578 245.8218
  11.317   1.3704   0.02093   0.00702  -0.0709   0.0202   0.7058 137.4282 246.2614
  11.402   1.3765   0.02112   0.00714  -0.0703   0.0200   0.7094 137.4975 246.6361
  11.487   1.3826   0.02132   0.00724  -0.0698   0.0198   0.7124 137.5656 246.9571
  11.573   1.3886   0.02152   0.00737  -0.0693   0.0196   0.7147 137.6334 247.1929
  11.658   1.3944   0.02174   0.00749  -0.0688   0.0194   0.7169 137.7008 247.4250
  11.744   1.4000   0.02198   0.00763  -0.0682   0.0192   0.7190 137.7691 247.6519
  11.829   1.4053   0.02224   0.00777  -0.0676   0.0190   0.7210 137.8408 247.8696
  11.915   1.4100   0.02254   0.00794  -0.0669   0.0187   0.7227 137.9190 248.0497
  12.000   1.4139   0.02289   0.00816  -0.0660   0.0185   0.7241 138.0020 248.1927
