  
       XFOIL         Version 6.99
  
 Calculated polar for: Repaneled_Airfoil                               
  
 1 1 Reynolds number fixed          Mach number fixed         
  
 xtrf =   1.000 (top)        1.000 (bottom)  
 Mach =   0.000     Re =     1.000 e 6     Ncrit =   9.000  9.000
  
   alpha    CL        CD       CDp       CM     Top_Xtr  Bot_Xtr  Top_Itr  Bot_Itr
  ------ -------- --------- --------- -------- -------- -------- -------- --------
  -5.000  -0.1889   0.00826   0.00162  -0.0940   0.9373   0.0897  25.1636 180.0547
  -4.915  -0.1799   0.00818   0.00158  -0.0938   0.9354   0.0933  25.5390 180.6362
  -4.829  -0.1706   0.00810   0.00153  -0.0937   0.9339   0.0969  25.8311 181.2240
  -4.744  -0.1613   0.00803   0.00148  -0.0937   0.9324   0.1009  26.1215 181.8658
  -4.658  -0.1522   0.00795   0.00144  -0.0935   0.9305   0.1048  26.4815 182.4798
  -4.573  -0.1428   0.00788   0.00140  -0.0935   0.9289   0.1090  26.7739 183.1337
  -4.487  -0.1333   0.00780   0.00136  -0.0934   0.9276   0.1138  27.0201 183.8582
  -4.402  -0.1242   0.00773   0.00133  -0.0933   0.9255   0.1184  27.3948 184.5449
  -4.317  -0.1149   0.00766   0.00129  -0.0933   0.9238   0.1231  27.7132 185.2344
  -4.231  -0.1054   0.00759   0.00125  -0.0932   0.9223   0.1282  27.9778 185.9729
  -4.146  -0.0962   0.00752   0.00122  -0.0931   0.9201   0.1337  28.3714 186.7492
  -4.060  -0.0868   0.00745   0.00118  -0.0931   0.9181   0.1392  28.7221 187.5065
  -3.975  -0.0773   0.00738   0.00114  -0.0930   0.9163   0.1445  29.0321 188.2430
  -3.889  -0.0681   0.00732   0.00112  -0.0929   0.9137   0.1499  29.4790 188.9691
  -3.804  -0.0587   0.00726   0.00108  -0.0929   0.9114   0.1553  29.8657 189.6754
  -3.719  -0.0493   0.00720   0.00105  -0.0928   0.9087   0.1602  30.3118 190.3234
  -3.633  -0.0399   0.00715   0.00102  -0.0927   0.9059   0.1653  30.7804 190.9813
  -3.548  -0.0305   0.00708   0.00099  -0.0926   0.9029   0.1703  31.2662 191.6250
  -3.462  -0.0212   0.00703   0.00096  -0.0926   0.8995   0.1754  31.8026 192.2633
  -3.377  -0.0117   0.00698   0.00093  -0.0925   0.8959   0.1807  32.3754 192.9281
  -3.292  -0.0023   0.00693   0.00090  -0.0924   0.8921   0.1857  32.9601 193.5432
  -3.206   0.0071   0.00689   0.00088  -0.0924   0.8876   0.1905  33.6495 194.1352
  -3.121   0.0165   0.00684   0.00085  -0.0923   0.8829   0.1957  34.3486 194.7569
  -3.035   0.0259   0.00680   0.00082  -0.0922   0.8778   0.2006  35.1059 195.3468
  -2.950   0.0354   0.00677   0.00079  -0.0921   0.8716   0.2055  35.9939 195.9319
  -2.864   0.0447   0.00673   0.00077  -0.0920   0.8644   0.2098  37.0225 196.4313
  -2.779   0.0540   0.00671   0.00074  -0.0919   0.8552   0.2140  38.2782 196.9289
  -2.693   0.0631   0.00669   0.00070  -0.0917   0.8429   0.2178  39.9254 197.3686
  -2.608   0.0719   0.00670   0.00066  -0.0915   0.8248   0.2218  42.2444 197.8315
  -2.523   0.0798   0.00675   0.00061  -0.0911   0.7977   0.2254  45.5487 198.2370
  -2.437   0.0871   0.00686   0.00059  -0.0905   0.7662   0.2291  49.2001 198.6632
  -2.352   0.0946   0.00698   0.00058  -0.0900   0.7407   0.2326  52.0275 199.0595
  -2.181   0.1113   0.00711   0.00060  -0.0895   0.7104   0.2398  55.2676 199.8680
  -2.095   0.1201   0.00715   0.00060  -0.0893   0.7004   0.2430  56.3128 200.2245
  -2.010   0.1291   0.00719   0.00061  -0.0892   0.6922   0.2464  57.1718 200.6084
  -1.925   0.1382   0.00722   0.00061  -0.0890   0.6849   0.2498  57.9161 200.9805
  -1.839   0.1474   0.00724   0.00062  -0.0890   0.6785   0.2531  58.5772 201.3382
  -1.754   0.1567   0.00726   0.00062  -0.0889   0.6727   0.2565  59.1669 201.7197
  -1.668   0.1660   0.00728   0.00062  -0.0888   0.6671   0.2598  59.7383 202.0714
  -1.583   0.1753   0.00729   0.00063  -0.0888   0.6621   0.2630  60.2463 202.4206
  -1.498   0.1847   0.00730   0.00063  -0.0887   0.6571   0.2663  60.7501 202.7821
  -1.412   0.1941   0.00731   0.00063  -0.0887   0.6526   0.2694  61.2001 203.1184
  -1.327   0.2036   0.00732   0.00063  -0.0886   0.6480   0.2728  61.6544 203.4818
  -1.241   0.2130   0.00733   0.00063  -0.0886   0.6441   0.2763  62.0528 203.8583
  -1.156   0.2226   0.00733   0.00063  -0.0886   0.6400   0.2796  62.4596 204.2016
  -1.070   0.2320   0.00733   0.00063  -0.0885   0.6362   0.2829  62.8349 204.5591
  -0.985   0.2415   0.00734   0.00063  -0.0885   0.6327   0.2864  63.1802 204.9254
  -0.899   0.2511   0.00734   0.00063  -0.0885   0.6291   0.2898  63.5383 205.2835
  -0.814   0.2606   0.00734   0.00063  -0.0885   0.6258   0.2937  63.8669 205.6896
  -0.729   0.2701   0.00734   0.00063  -0.0885   0.6226   0.2975  64.1783 206.0907
  -0.643   0.2797   0.00733   0.00063  -0.0885   0.6193   0.3015  64.5072 206.5066
  -0.558   0.2892   0.00734   0.00062  -0.0884   0.6161   0.3055  64.8164 206.9239
  -0.472   0.2987   0.00734   0.00062  -0.0884   0.6132   0.3094  65.1015 207.3318
  -0.387   0.3084   0.00733   0.00062  -0.0884   0.6101   0.3141  65.4106 207.8125
  -0.301   0.3179   0.00732   0.00062  -0.0884   0.6070   0.3190  65.7090 208.3129
  -0.216   0.3273   0.00733   0.00062  -0.0884   0.6043   0.3246  65.9772 208.8891
  -0.131   0.3369   0.00731   0.00062  -0.0884   0.6014   0.3304  66.2600 209.4825
  -0.045   0.3465   0.00730   0.00062  -0.0884   0.5984   0.3367  66.5477 210.1185
   0.040   0.3560   0.00729   0.00062  -0.0884   0.5956   0.3437  66.8182 210.8205
   0.126   0.3655   0.00728   0.00062  -0.0884   0.5930   0.3517  67.0716 211.6187
   0.211   0.3751   0.00725   0.00062  -0.0884   0.5901   0.3615  67.3534 212.5963
   0.296   0.3846   0.00723   0.00062  -0.0884   0.5873   0.3736  67.6319 213.8012
   0.382   0.3939   0.00720   0.00062  -0.0884   0.5846   0.3889  67.8896 215.3038
   0.467   0.4033   0.00715   0.00062  -0.0884   0.5820   0.4091  68.1417 217.2700
   0.553   0.4127   0.00707   0.00062  -0.0884   0.5792   0.4364  68.4155 219.9073
   0.638   0.4219   0.00696   0.00062  -0.0884   0.5764   0.4752  68.6811 223.6353
   0.724   0.4307   0.00681   0.00062  -0.0883   0.5739   0.5326  68.9240 229.1183
   0.809   0.4394   0.00662   0.00064  -0.0882   0.5714   0.6056  69.1681 236.1643
   0.894   0.4482   0.00650   0.00068  -0.0881   0.5687   0.6635  69.4291 241.9087
   0.980   0.4573   0.00647   0.00071  -0.0880   0.5661   0.6940  69.6816 245.0275
   1.065   0.4666   0.00648   0.00073  -0.0879   0.5636   0.7119  69.9133 246.8948
   1.151   0.4760   0.00648   0.00075  -0.0878   0.5612   0.7245  70.1453 248.2368
   1.236   0.4855   0.00648   0.00077  -0.0878   0.5587   0.7345  70.3934 249.3097
   1.322   0.4950   0.00650   0.00078  -0.0877   0.5562   0.7430  70.6343 250.2293
   1.407   0.5044   0.00652   0.00079  -0.0877   0.5538   0.7505  70.8569 251.0539
   1.492   0.5139   0.00654   0.00080  -0.0876   0.5517   0.7570  71.0652 251.7787
   1.578   0.5235   0.00654   0.00082  -0.0876   0.5492   0.7628  71.2996 252.4281
   1.663   0.5330   0.00656   0.00082  -0.0876   0.5466   0.7685  71.5476 253.0636
   1.749   0.5424   0.00658   0.00083  -0.0875   0.5440   0.7735  71.7983 253.6393
   1.834   0.5518   0.00660   0.00084  -0.0874   0.5413   0.7783  72.0559 254.1881
   1.920   0.5613   0.00661   0.00085  -0.0874   0.5381   0.7829  72.3692 254.7173
   2.005   0.5707   0.00663   0.00086  -0.0874   0.5346   0.7872  72.7009 255.2121
   2.091   0.5799   0.00667   0.00086  -0.0873   0.5313   0.7916  73.0171 255.7294
   2.176   0.5895   0.00667   0.00087  -0.0872   0.5275   0.7960  73.3775 256.2486
   2.261   0.5989   0.00670   0.00087  -0.0872   0.5239   0.8007  73.7260 256.8139
   2.347   0.6080   0.00672   0.00088  -0.0871   0.5206   0.8053  74.0425 257.3669
   2.432   0.6176   0.00673   0.00088  -0.0870   0.5169   0.8103  74.3906 257.9656
   2.518   0.6268   0.00675   0.00089  -0.0869   0.5134   0.8149  74.7309 258.5331
   2.603   0.6360   0.00678   0.00090  -0.0868   0.5102   0.8197  75.0368 259.1257
   2.688   0.6454   0.00679   0.00090  -0.0868   0.5066   0.8243  75.3807 259.7022
   2.774   0.6547   0.00681   0.00091  -0.0867   0.5030   0.8287  75.7268 260.2498
   2.859   0.6638   0.00684   0.00091  -0.0866   0.4996   0.8331  76.0456 260.8132
   2.945   0.6732   0.00684   0.00092  -0.0865   0.4959   0.8374  76.3998 261.3674
   3.030   0.6825   0.00687   0.00092  -0.0864   0.4921   0.8421  76.7606 261.9768
   3.116   0.6915   0.00689   0.00093  -0.0863   0.4886   0.8467  77.1007 262.5904
   3.201   0.7008   0.00690   0.00093  -0.0862   0.4845   0.8517  77.4892 263.2515
   3.286   0.7098   0.00692   0.00093  -0.0861   0.4806   0.8572  77.8664 263.9953
   3.372   0.7188   0.00693   0.00094  -0.0860   0.4768   0.8631  78.2210 264.8157
   3.457   0.7278   0.00694   0.00095  -0.0858   0.4730   0.8699  78.5875 265.7579
   3.543   0.7365   0.00695   0.00095  -0.0856   0.4695   0.8776  78.9258 266.8663
   3.628   0.7452   0.00695   0.00096  -0.0854   0.4659   0.8869  79.2648 268.2502
   3.714   0.7536   0.00694   0.00097  -0.0851   0.4621   0.8992  79.6334 270.1453
   3.799   0.7613   0.00694   0.00098  -0.0846   0.4585   0.9173  79.9776 273.1535
   3.884   0.7708   0.00692   0.00099  -0.0845   0.4544   0.9449  80.3658 278.3886
   3.970   0.7853   0.00694   0.00099  -0.0856   0.4496   0.9742  80.8306 285.5962
   4.055   0.7988   0.00698   0.00099  -0.0865   0.4452   1.0000  81.2551 301.0000
   4.141   0.8081   0.00703   0.00100  -0.0864   0.4408   1.0000  81.6806 301.0000
   4.226   0.8172   0.00708   0.00101  -0.0864   0.4363   1.0000  82.1064 301.0000
   4.312   0.8266   0.00713   0.00101  -0.0863   0.4310   1.0000  82.6170 301.0000
   4.397   0.8356   0.00719   0.00102  -0.0863   0.4258   1.0000  83.1216 301.0000
   4.482   0.8449   0.00724   0.00103  -0.0862   0.4202   1.0000  83.6635 301.0000
   4.568   0.8539   0.00730   0.00104  -0.0861   0.4152   1.0000  84.1456 301.0000
   4.653   0.8631   0.00736   0.00105  -0.0861   0.4099   1.0000  84.6585 301.0000
   4.739   0.8722   0.00742   0.00106  -0.0860   0.4046   1.0000  85.1733 301.0000
   4.824   0.8812   0.00749   0.00108  -0.0859   0.3980   1.0000  85.8204 301.0000
   4.910   0.8902   0.00756   0.00109  -0.0858   0.3908   1.0000  86.5227 301.0000
   4.995   0.8990   0.00764   0.00111  -0.0857   0.3829   1.0000  87.2991 301.0000
   5.080   0.9077   0.00774   0.00113  -0.0855   0.3740   1.0000  88.1764 301.0000
   5.166   0.9163   0.00784   0.00115  -0.0854   0.3634   1.0000  89.2237 301.0000
   5.251   0.9248   0.00795   0.00117  -0.0852   0.3518   1.0000  90.3785 301.0000
   5.337   0.9331   0.00809   0.00121  -0.0850   0.3382   1.0000  91.7432 301.0000
   5.422   0.9410   0.00825   0.00125  -0.0848   0.3223   1.0000  93.3624 301.0000
   5.508   0.9486   0.00845   0.00131  -0.0845   0.3021   1.0000  95.4411 301.0000
   5.593   0.9555   0.00871   0.00139  -0.0840   0.2760   1.0000  98.1870 301.0000
   5.678   0.9616   0.00904   0.00152  -0.0835   0.2453   1.0000 101.5293 301.0000
   5.764   0.9679   0.00937   0.00165  -0.0830   0.2192   1.0000 104.4859 301.0000
   5.849   0.9747   0.00963   0.00176  -0.0826   0.1995   1.0000 106.7978 301.0000
   5.935   0.9820   0.00986   0.00186  -0.0823   0.1840   1.0000 108.6827 301.0000
   6.020   0.9895   0.01007   0.00195  -0.0820   0.1704   1.0000 110.3742 301.0000
   6.106   0.9971   0.01026   0.00203  -0.0817   0.1589   1.0000 111.8603 301.0000
   6.191   1.0049   0.01043   0.00210  -0.0814   0.1484   1.0000 113.2464 301.0000
   6.276   1.0128   0.01059   0.00217  -0.0811   0.1394   1.0000 114.4801 301.0000
   6.362   1.0207   0.01075   0.00224  -0.0809   0.1310   1.0000 115.6478 301.0000
   6.447   1.0287   0.01090   0.00230  -0.0806   0.1237   1.0000 116.6960 301.0000
   6.533   1.0368   0.01104   0.00236  -0.0804   0.1171   1.0000 117.6593 301.0000
   6.618   1.0448   0.01118   0.00242  -0.0802   0.1108   1.0000 118.6083 301.0000
   6.704   1.0529   0.01132   0.00248  -0.0800   0.1051   1.0000 119.4928 301.0000
   6.789   1.0609   0.01146   0.00254  -0.0797   0.1000   1.0000 120.2879 301.0000
   6.874   1.0690   0.01160   0.00260  -0.0795   0.0952   1.0000 121.0621 301.0000
   6.960   1.0771   0.01172   0.00266  -0.0793   0.0906   1.0000 121.8149 301.0000
   7.045   1.0852   0.01185   0.00271  -0.0791   0.0866   1.0000 122.4848 301.0000
   7.131   1.0933   0.01199   0.00277  -0.0788   0.0830   1.0000 123.1080 301.0000
   7.216   1.1014   0.01211   0.00283  -0.0786   0.0793   1.0000 123.7500 301.0000
   7.301   1.1095   0.01223   0.00289  -0.0784   0.0760   1.0000 124.3389 301.0000
   7.387   1.1174   0.01237   0.00295  -0.0781   0.0728   1.0000 124.9293 301.0000
   7.472   1.1255   0.01248   0.00300  -0.0779   0.0699   1.0000 125.4597 301.0000
   7.643   1.1415   0.01274   0.00312  -0.0774   0.0647   1.0000 126.4598 301.0000
   7.729   1.1493   0.01288   0.00319  -0.0772   0.0621   1.0000 126.9544 301.0000
   7.814   1.1573   0.01299   0.00324  -0.0769   0.0598   1.0000 127.4198 301.0000
   7.899   1.1651   0.01313   0.00331  -0.0766   0.0575   1.0000 127.8886 301.0000
   7.985   1.1730   0.01326   0.00337  -0.0764   0.0555   1.0000 128.3116 301.0000
   8.070   1.1807   0.01339   0.00343  -0.0761   0.0534   1.0000 128.7380 301.0000
   8.156   1.1884   0.01353   0.00350  -0.0758   0.0516   1.0000 129.1223 301.0000
   8.241   1.1964   0.01364   0.00356  -0.0756   0.0498   1.0000 129.5210 301.0000
   8.327   1.2039   0.01379   0.00363  -0.0753   0.0481   1.0000 129.9018 301.0000
   8.412   1.2117   0.01391   0.00369  -0.0750   0.0466   1.0000 130.2378 301.0000
   8.498   1.2194   0.01404   0.00375  -0.0747   0.0451   1.0000 130.5788 301.0000
   8.583   1.2268   0.01419   0.00382  -0.0744   0.0437   1.0000 130.8981 301.0000
   8.668   1.2344   0.01432   0.00388  -0.0741   0.0425   1.0000 131.1790 301.0000
   8.754   1.2421   0.01444   0.00395  -0.0738   0.0413   1.0000 131.4662 301.0000
   8.839   1.2494   0.01459   0.00402  -0.0735   0.0402   1.0000 131.7437 301.0000
   8.925   1.2565   0.01476   0.00410  -0.0731   0.0391   1.0000 132.0117 301.0000
   9.010   1.2643   0.01486   0.00416  -0.0728   0.0381   1.0000 132.2503 301.0000
   9.095   1.2717   0.01499   0.00422  -0.0725   0.0371   1.0000 132.5101 301.0000
   9.181   1.2789   0.01514   0.00429  -0.0721   0.0361   1.0000 132.7550 301.0000
   9.266   1.2858   0.01531   0.00438  -0.0717   0.0352   1.0000 132.9840 301.0000
   9.352   1.2933   0.01543   0.00444  -0.0714   0.0345   1.0000 133.1784 301.0000
   9.437   1.3006   0.01556   0.00450  -0.0711   0.0337   1.0000 133.3848 301.0000
   9.523   1.3076   0.01570   0.00457  -0.0707   0.0330   1.0000 133.5865 301.0000
   9.608   1.3145   0.01586   0.00465  -0.0703   0.0322   1.0000 133.7770 301.0000
   9.694   1.3209   0.01604   0.00474  -0.0698   0.0315   1.0000 133.9675 301.0000
   9.779   1.3279   0.01617   0.00481  -0.0694   0.0310   1.0000 134.1198 301.0000
   9.864   1.3349   0.01631   0.00488  -0.0690   0.0304   1.0000 134.2795 301.0000
   9.950   1.3417   0.01645   0.00496  -0.0686   0.0298   1.0000 134.4439 301.0000
  10.035   1.3479   0.01661   0.00504  -0.0680   0.0293   1.0000 134.6010 301.0000
  10.121   1.3537   0.01677   0.00512  -0.0674   0.0287   1.0000 134.7495 301.0000
  10.206   1.3590   0.01696   0.00521  -0.0667   0.0282   1.0000 134.9003 301.0000
  10.291   1.3645   0.01715   0.00531  -0.0661   0.0277   1.0000 135.0395 301.0000
  10.377   1.3709   0.01728   0.00537  -0.0656   0.0273   1.0000 135.1588 301.0000
  10.462   1.3771   0.01742   0.00545  -0.0651   0.0269   1.0000 135.2906 301.0000
  10.548   1.3831   0.01757   0.00553  -0.0645   0.0264   1.0000 135.4253 301.0000
  10.633   1.3890   0.01774   0.00561  -0.0639   0.0260   1.0000 135.5578 301.0000
  10.719   1.3946   0.01792   0.00570  -0.0633   0.0256   1.0000 135.6835 301.0000
  10.804   1.3999   0.01811   0.00580  -0.0627   0.0252   1.0000 135.8041 301.0000
  10.889   1.4049   0.01833   0.00592  -0.0620   0.0248   1.0000 135.9263 301.0000
  10.975   1.4099   0.01854   0.00603  -0.0613   0.0244   1.0000 136.0355 301.0000
  11.060   1.4159   0.01870   0.00612  -0.0608   0.0241   1.0000 136.1280 301.0000
  11.146   1.4216   0.01888   0.00621  -0.0602   0.0238   1.0000 136.2275 301.0000
  11.231   1.4272   0.01906   0.00631  -0.0597   0.0235   1.0000 136.3288 301.0000
  11.317   1.4327   0.01925   0.00641  -0.0591   0.0232   1.0000 136.4294 301.0000
  11.402   1.4380   0.01944   0.00651  -0.0585   0.0229   1.0000 136.5296 301.0000
  11.487   1.4432   0.01965   0.00662  -0.0579   0.0225   1.0000 136.6290 301.0000
  11.573   1.4481   0.01987   0.00674  -0.0572   0.0222   1.0000 136.7283 301.0000
  11.658   1.4526   0.02012   0.00688  -0.0565   0.0219   1.0000 136.8309 301.0000
  11.744   1.4565   0.02041   0.00704  -0.0558   0.0216   1.0000 136.9417 301.0000
  11.829   1.4610   0.02066   0.00718  -0.0551   0.0213   1.0000 137.0324 301.0000
  11.915   1.4665   0.02086   0.00729  -0.0546   0.0211   1.0000 137.1088 301.0000
  12.000   1.4717   0.02106   0.00741  -0.0540   0.0208   1.0000 137.1942 301.0000
