  
       XFOIL         Version 6.99
  
 Calculated polar for: Repaneled_Airfoil                               
  
 1 1 Reynolds number fixed          Mach number fixed         
  
 xtrf =   1.000 (top)        1.000 (bottom)  
 Mach =   0.000     Re =     1.000 e 6     Ncrit =   9.000  9.000
  
   alpha    CL        CD       CDp       CM     Top_Xtr  Bot_Xtr  Top_Itr  Bot_Itr
  ------ -------- --------- --------- -------- -------- -------- -------- --------
  -5.000   0.0691   0.01229   0.00330  -0.1214   0.7127   0.0053  55.0421 157.9031
  -4.915   0.0789   0.01217   0.00323  -0.1215   0.7122   0.0055  55.1045 157.9966
  -4.829   0.0885   0.01200   0.00309  -0.1216   0.7115   0.0060  55.1693 158.2942
  -4.744   0.0982   0.01182   0.00296  -0.1216   0.7109   0.0065  55.2346 158.6522
  -4.658   0.1077   0.01162   0.00279  -0.1217   0.7103   0.0076  55.2997 159.2740
  -4.573   0.1173   0.01142   0.00263  -0.1218   0.7097   0.0104  55.3637 160.7199
  -4.487   0.1272   0.01133   0.00256  -0.1218   0.7091   0.0110  55.4262 160.9921
  -4.402   0.1369   0.01118   0.00245  -0.1219   0.7085   0.0118  55.4863 161.3571
  -4.317   0.1466   0.01104   0.00235  -0.1220   0.7080   0.0129  55.5436 161.8059
  -4.231   0.1563   0.01089   0.00223  -0.1220   0.7075   0.0143  55.5972 162.4131
  -4.146   0.1660   0.01075   0.00212  -0.1221   0.7070   0.0165  55.6480 163.2482
  -4.060   0.1759   0.01066   0.00206  -0.1221   0.7065   0.0180  55.6976 163.8259
  -3.975   0.1857   0.01057   0.00200  -0.1222   0.7060   0.0190  55.7464 164.1732
  -3.889   0.1955   0.01046   0.00192  -0.1223   0.7056   0.0203  55.7944 164.6046
  -3.719   0.2152   0.01026   0.00178  -0.1224   0.7046   0.0230  55.8936 165.4955
  -3.633   0.2250   0.01019   0.00172  -0.1225   0.7041   0.0244  55.9462 165.9611
  -3.548   0.2348   0.01011   0.00167  -0.1225   0.7036   0.0260  56.0034 166.4342
  -3.462   0.2447   0.01004   0.00164  -0.1226   0.7029   0.0274  56.0804 166.8478
  -3.377   0.2546   0.00997   0.00161  -0.1227   0.7021   0.0285  56.1644 167.1642
  -3.292   0.2645   0.00988   0.00158  -0.1227   0.7012   0.0297  56.2515 167.5192
  -3.206   0.2744   0.00982   0.00155  -0.1228   0.7004   0.0309  56.3397 167.8542
  -3.121   0.2844   0.00974   0.00151  -0.1229   0.6996   0.0320  56.4256 168.1546
  -3.035   0.2943   0.00967   0.00148  -0.1229   0.6988   0.0333  56.5076 168.4892
  -2.950   0.3042   0.00961   0.00145  -0.1230   0.6980   0.0345  56.5869 168.8112
  -2.864   0.3141   0.00955   0.00141  -0.1231   0.6973   0.0356  56.6639 169.0924
  -2.779   0.3240   0.00948   0.00138  -0.1231   0.6965   0.0368  56.7394 169.3946
  -2.693   0.3340   0.00943   0.00134  -0.1232   0.6958   0.0379  56.8128 169.6935
  -2.608   0.3439   0.00938   0.00131  -0.1232   0.6952   0.0389  56.8836 169.9465
  -2.523   0.3538   0.00933   0.00127  -0.1233   0.6945   0.0399  56.9522 170.1832
  -2.437   0.3637   0.00928   0.00124  -0.1233   0.6938   0.0410  57.0254 170.4319
  -2.352   0.3737   0.00923   0.00124  -0.1234   0.6929   0.0422  57.1146 170.7270
  -2.266   0.3836   0.00918   0.00124  -0.1235   0.6920   0.0442  57.2053 171.2027
  -2.181   0.3935   0.00915   0.00126  -0.1235   0.6912   0.0469  57.2963 171.8154
  -2.095   0.4035   0.00913   0.00129  -0.1236   0.6903   0.0494  57.3858 172.3759
  -2.010   0.4135   0.00913   0.00132  -0.1237   0.6895   0.0517  57.4736 172.8929
  -1.925   0.4234   0.00909   0.00133  -0.1238   0.6886   0.0535  57.5609 173.2764
  -1.839   0.4334   0.00906   0.00133  -0.1239   0.6878   0.0548  57.6469 173.5340
  -1.754   0.4434   0.00902   0.00130  -0.1239   0.6870   0.0558  57.7310 173.7442
  -1.668   0.4534   0.00898   0.00126  -0.1239   0.6861   0.0567  57.8142 173.9435
  -1.583   0.4632   0.00892   0.00122  -0.1240   0.6853   0.0578  57.8967 174.1564
  -1.498   0.4731   0.00888   0.00120  -0.1240   0.6845   0.0588  57.9814 174.3642
  -1.412   0.4831   0.00885   0.00120  -0.1241   0.6834   0.0598  58.0955 174.5776
  -1.327   0.4931   0.00882   0.00119  -0.1241   0.6821   0.0609  58.2267 174.7997
  -1.241   0.5031   0.00879   0.00116  -0.1242   0.6808   0.0619  58.3602 174.9933
  -1.156   0.5129   0.00873   0.00115  -0.1242   0.6795   0.0630  58.4927 175.2168
  -1.070   0.5229   0.00868   0.00113  -0.1243   0.6783   0.0641  58.6208 175.4248
  -0.985   0.5328   0.00865   0.00111  -0.1243   0.6771   0.0652  58.7413 175.6428
  -0.899   0.5427   0.00862   0.00107  -0.1243   0.6760   0.0663  58.8552 175.8590
  -0.814   0.5526   0.00859   0.00103  -0.1244   0.6749   0.0674  58.9644 176.0623
  -0.729   0.5625   0.00854   0.00103  -0.1244   0.6736   0.0686  59.0991 176.2920
  -0.643   0.5725   0.00852   0.00104  -0.1245   0.6721   0.0698  59.2545 176.5178
  -0.558   0.5824   0.00849   0.00103  -0.1245   0.6705   0.0711  59.4139 176.7547
  -0.472   0.5924   0.00847   0.00100  -0.1246   0.6690   0.0722  59.5722 176.9673
  -0.387   0.6022   0.00842   0.00098  -0.1246   0.6675   0.0734  59.7220 177.1855
  -0.301   0.6121   0.00839   0.00097  -0.1246   0.6661   0.0746  59.8588 177.3959
  -0.216   0.6220   0.00837   0.00095  -0.1246   0.6649   0.0758  59.9822 177.6206
  -0.131   0.6319   0.00836   0.00094  -0.1247   0.6634   0.0771  60.1311 177.8531
  -0.045   0.6418   0.00834   0.00093  -0.1247   0.6619   0.0783  60.2911 178.0692
   0.040   0.6517   0.00830   0.00093  -0.1248   0.6603   0.0796  60.4520 178.2860
   0.126   0.6616   0.00829   0.00092  -0.1248   0.6587   0.0808  60.6078 178.5066
   0.211   0.6715   0.00827   0.00090  -0.1248   0.6572   0.0821  60.7572 178.7401
   0.296   0.6813   0.00827   0.00087  -0.1248   0.6558   0.0834  60.8983 178.9523
   0.382   0.6911   0.00824   0.00086  -0.1249   0.6544   0.0846  61.0416 179.1668
   0.467   0.7010   0.00822   0.00087  -0.1249   0.6526   0.0858  61.2202 179.3688
   0.553   0.7109   0.00821   0.00087  -0.1249   0.6508   0.0870  61.4047 179.5794
   0.638   0.7207   0.00820   0.00086  -0.1250   0.6490   0.0884  61.5879 179.8039
   0.809   0.7402   0.00817   0.00084  -0.1250   0.6455   0.0909  61.9364 180.2249
   0.894   0.7501   0.00817   0.00085  -0.1250   0.6436   0.0922  62.1238 180.4387
   0.980   0.7600   0.00817   0.00085  -0.1251   0.6414   0.0936  62.3426 180.6760
   1.065   0.7698   0.00817   0.00084  -0.1251   0.6391   0.0951  62.5739 180.9116
   1.151   0.7795   0.00816   0.00083  -0.1251   0.6368   0.0964  62.8044 181.1304
   1.236   0.7892   0.00815   0.00083  -0.1251   0.6345   0.0977  63.0238 181.3360
   1.322   0.7990   0.00815   0.00084  -0.1251   0.6320   0.0990  63.2772 181.5474
   1.407   0.8088   0.00816   0.00083  -0.1251   0.6292   0.1004  63.5508 181.7660
   1.492   0.8184   0.00817   0.00081  -0.1251   0.6264   0.1016  63.8261 181.9604
   1.578   0.8280   0.00817   0.00080  -0.1251   0.6237   0.1028  64.0970 182.1542
   1.663   0.8377   0.00817   0.00081  -0.1251   0.6203   0.1040  64.4285 182.3389
   1.749   0.8473   0.00818   0.00081  -0.1251   0.6167   0.1052  64.7868 182.5310
   1.834   0.8568   0.00820   0.00081  -0.1251   0.6131   0.1066  65.1434 182.7350
   1.920   0.8664   0.00822   0.00080  -0.1251   0.6086   0.1078  65.5806 182.9325
   2.005   0.8757   0.00824   0.00080  -0.1250   0.6040   0.1091  66.0312 183.1247
   2.091   0.8852   0.00827   0.00081  -0.1250   0.5988   0.1103  66.5324 183.3137
   2.176   0.8944   0.00832   0.00081  -0.1249   0.5935   0.1116  67.0533 183.5107
   2.261   0.9037   0.00836   0.00082  -0.1249   0.5870   0.1130  67.6889 183.7248
   2.347   0.9128   0.00843   0.00082  -0.1248   0.5796   0.1144  68.4011 183.9305
   2.432   0.9216   0.00850   0.00084  -0.1247   0.5709   0.1157  69.2434 184.1315
   2.518   0.9302   0.00860   0.00087  -0.1245   0.5613   0.1170  70.1697 184.3234
   2.603   0.9386   0.00872   0.00091  -0.1243   0.5491   0.1184  71.3355 184.5193
   2.688   0.9465   0.00889   0.00096  -0.1241   0.5346   0.1197  72.7322 184.7141
   2.774   0.9540   0.00910   0.00102  -0.1238   0.5174   0.1209  74.3799 184.8884
   2.859   0.9606   0.00937   0.00111  -0.1234   0.4972   0.1219  76.3059 185.0373
   2.945   0.9666   0.00967   0.00124  -0.1229   0.4740   0.1229  78.5261 185.1879
   3.030   0.9721   0.01002   0.00138  -0.1224   0.4499   0.1239  80.8281 185.3269
   3.116   0.9774   0.01037   0.00153  -0.1218   0.4274   0.1249  83.0018 185.4709
   3.201   0.9828   0.01070   0.00167  -0.1213   0.4076   0.1259  84.9125 185.6241
   3.286   0.9886   0.01099   0.00178  -0.1208   0.3907   0.1271  86.5680 185.7857
   3.372   0.9947   0.01125   0.00189  -0.1204   0.3775   0.1281  87.8573 185.9405
   3.457   1.0012   0.01146   0.00198  -0.1199   0.3665   0.1292  88.9504 186.0943
   3.543   1.0079   0.01164   0.00207  -0.1196   0.3577   0.1303  89.8216 186.2555
   3.628   1.0150   0.01181   0.00214  -0.1192   0.3507   0.1316  90.5173 186.4273
   3.714   1.0220   0.01198   0.00221  -0.1189   0.3449   0.1329  91.1041 186.6163
   3.799   1.0294   0.01212   0.00227  -0.1186   0.3395   0.1343  91.6443 186.8126
   3.884   1.0366   0.01227   0.00233  -0.1183   0.3351   0.1355  92.0911 186.9836
   3.970   1.0440   0.01238   0.00238  -0.1180   0.3313   0.1368  92.4759 187.1625
   4.055   1.0512   0.01252   0.00245  -0.1177   0.3279   0.1380  92.8242 187.3263
   4.141   1.0585   0.01265   0.00250  -0.1174   0.3250   0.1392  93.1143 187.4990
   4.226   1.0661   0.01277   0.00255  -0.1171   0.3224   0.1406  93.3841 187.6877
   4.312   1.0735   0.01289   0.00260  -0.1168   0.3199   0.1420  93.6388 187.8733
   4.397   1.0805   0.01303   0.00265  -0.1165   0.3177   0.1432  93.8678 188.0381
   4.482   1.0876   0.01316   0.00271  -0.1162   0.3157   0.1444  94.0663 188.2065
   4.568   1.0952   0.01326   0.00276  -0.1159   0.3139   0.1456  94.2508 188.3716
   4.653   1.1026   0.01338   0.00281  -0.1156   0.3122   0.1469  94.4336 188.5442
   4.739   1.1097   0.01351   0.00287  -0.1153   0.3105   0.1482  94.6067 188.7234
   4.824   1.1166   0.01367   0.00294  -0.1151   0.3089   0.1495  94.7680 188.8971
   4.910   1.1228   0.01387   0.00303  -0.1147   0.3075   0.1507  94.9167 189.0521
   4.995   1.1279   0.01408   0.00314  -0.1142   0.3063   0.1518  95.0425 189.2044
   5.080   1.1335   0.01426   0.00323  -0.1138   0.3052   0.1530  95.1534 189.3609
   5.166   1.1395   0.01444   0.00332  -0.1134   0.3041   0.1543  95.2661 189.5363
   5.251   1.1459   0.01463   0.00341  -0.1130   0.3030   0.1558  95.3795 189.7360
   5.337   1.1525   0.01482   0.00350  -0.1127   0.3020   0.1574  95.4903 189.9347
   5.422   1.1590   0.01501   0.00360  -0.1124   0.3009   0.1588  95.5971 190.1292
   5.508   1.1655   0.01520   0.00371  -0.1121   0.2999   0.1603  95.6999 190.3196
   5.593   1.1718   0.01541   0.00381  -0.1118   0.2990   0.1618  95.7996 190.5107
   5.678   1.1779   0.01563   0.00392  -0.1114   0.2981   0.1633  95.8973 190.7038
   5.764   1.1838   0.01586   0.00403  -0.1110   0.2971   0.1647  95.9961 190.8874
   5.849   1.1910   0.01600   0.00410  -0.1108   0.2964   0.1662  96.0695 191.0761
   5.935   1.1982   0.01615   0.00418  -0.1105   0.2957   0.1677  96.1464 191.2738
   6.020   1.2052   0.01630   0.00425  -0.1102   0.2949   0.1694  96.2259 191.4859
   6.106   1.2120   0.01647   0.00433  -0.1099   0.2941   0.1712  96.3066 191.7134
   6.191   1.2186   0.01664   0.00441  -0.1096   0.2934   0.1729  96.3860 191.9369
   6.276   1.2252   0.01682   0.00450  -0.1093   0.2927   0.1747  96.4624 192.1551
   6.362   1.2317   0.01700   0.00458  -0.1090   0.2920   0.1764  96.5361 192.3768
   6.447   1.2381   0.01718   0.00467  -0.1086   0.2913   0.1783  96.6077 192.6081
   6.533   1.2443   0.01738   0.00476  -0.1082   0.2906   0.1802  96.6775 192.8448
   6.618   1.2504   0.01759   0.00486  -0.1079   0.2900   0.1820  96.7460 193.0751
   6.704   1.2563   0.01779   0.00496  -0.1075   0.2893   0.1840  96.8141 193.3155
   6.789   1.2621   0.01801   0.00506  -0.1070   0.2887   0.1861  96.8830 193.5778
   6.874   1.2676   0.01825   0.00517  -0.1066   0.2880   0.1884  96.9541 193.8588
   6.960   1.2735   0.01846   0.00527  -0.1062   0.2874   0.1908  97.0165 194.1519
   7.045   1.2805   0.01861   0.00534  -0.1059   0.2869   0.1938  97.0642 194.5163
   7.131   1.2873   0.01876   0.00541  -0.1056   0.2865   0.1972  97.1154 194.9275
   7.216   1.2941   0.01891   0.00548  -0.1053   0.2859   0.2009  97.1691 195.3664
   7.301   1.3008   0.01907   0.00555  -0.1050   0.2854   0.2053  97.2246 195.8939
   7.387   1.3076   0.01922   0.00562  -0.1047   0.2847   0.2112  97.3037 196.5866
   7.472   1.3145   0.01936   0.00567  -0.1044   0.2830   0.2219  97.4839 197.8201
   7.558   1.3211   0.01937   0.00587  -0.1043   0.2808   0.4369  97.7108 219.9475
   7.643   1.3255   0.01963   0.00605  -0.1038   0.2786   0.5012  97.9506 226.0991
   7.729   1.3337   0.01961   0.00614  -0.1037   0.2762   0.5896  98.2094 234.5899
   7.814   1.3340   0.01903   0.00627  -0.1018   0.2746   0.9566  98.3792 280.9698
   7.899   1.3432   0.01923   0.00637  -0.1020   0.2718   0.9877  98.6814 290.3935
   7.985   1.3525   0.01956   0.00652  -0.1025   0.2693   1.0000  98.9403 301.0000
   8.070   1.3584   0.01976   0.00659  -0.1021   0.2682   1.0000  99.0623 301.0000
   8.156   1.3652   0.01991   0.00664  -0.1018   0.2675   1.0000  99.1440 301.0000
   8.241   1.3717   0.02008   0.00669  -0.1014   0.2666   1.0000  99.2326 301.0000
   8.327   1.3781   0.02025   0.00675  -0.1011   0.2657   1.0000  99.3359 301.0000
   8.412   1.3843   0.02044   0.00681  -0.1007   0.2646   1.0000  99.4520 301.0000
   8.498   1.3902   0.02064   0.00688  -0.1003   0.2635   1.0000  99.5746 301.0000
   8.583   1.3957   0.02087   0.00697  -0.0998   0.2623   1.0000  99.6993 301.0000
   8.668   1.4009   0.02112   0.00706  -0.0993   0.2612   1.0000  99.8256 301.0000
   8.754   1.4055   0.02141   0.00717  -0.0988   0.2599   1.0000  99.9587 301.0000
   8.839   1.4120   0.02158   0.00723  -0.0985   0.2588   1.0000 100.0861 301.0000
   8.925   1.4191   0.02172   0.00726  -0.0982   0.2574   1.0000 100.2349 301.0000
   9.010   1.4255   0.02189   0.00731  -0.0978   0.2559   1.0000 100.4037 301.0000
   9.095   1.4316   0.02209   0.00737  -0.0975   0.2543   1.0000 100.5786 301.0000
   9.181   1.4372   0.02232   0.00745  -0.0970   0.2527   1.0000 100.7495 301.0000
   9.266   1.4422   0.02259   0.00755  -0.0966   0.2512   1.0000 100.9142 301.0000
   9.352   1.4479   0.02281   0.00762  -0.0961   0.2498   1.0000 101.0695 301.0000
   9.437   1.4545   0.02298   0.00767  -0.0958   0.2483   1.0000 101.2390 301.0000
   9.523   1.4605   0.02319   0.00773  -0.0954   0.2465   1.0000 101.4381 301.0000
   9.608   1.4660   0.02342   0.00781  -0.0950   0.2445   1.0000 101.6594 301.0000
   9.694   1.4707   0.02371   0.00791  -0.0945   0.2424   1.0000 101.8938 301.0000
   9.779   1.4763   0.02393   0.00798  -0.0941   0.2402   1.0000 102.1356 301.0000
   9.864   1.4822   0.02414   0.00804  -0.0937   0.2374   1.0000 102.4470 301.0000
   9.950   1.4868   0.02444   0.00815  -0.0932   0.2343   1.0000 102.7963 301.0000
  10.035   1.4916   0.02472   0.00825  -0.0927   0.2313   1.0000 103.1376 301.0000
  10.121   1.4970   0.02496   0.00832  -0.0923   0.2268   1.0000 103.6509 301.0000
  10.206   1.5009   0.02530   0.00845  -0.0917   0.2220   1.0000 104.2046 301.0000
  10.291   1.5043   0.02567   0.00859  -0.0911   0.2166   1.0000 104.8236 301.0000
  10.377   1.5079   0.02603   0.00873  -0.0905   0.2112   1.0000 105.4569 301.0000
  10.462   1.5103   0.02646   0.00891  -0.0898   0.2044   1.0000 106.2552 301.0000
  10.548   1.5100   0.02707   0.00919  -0.0888   0.1927   1.0000 107.6570 301.0000
  10.633   1.5041   0.02805   0.00971  -0.0873   0.1725   1.0000 110.1547 301.0000
  10.719   1.4946   0.02930   0.01043  -0.0855   0.1494   1.0000 113.1612 301.0000
  10.804   1.4853   0.03058   0.01120  -0.0837   0.1264   1.0000 116.3515 301.0000
  10.889   1.4764   0.03186   0.01197  -0.0820   0.1025   1.0000 119.9350 301.0000
  10.975   1.4679   0.03314   0.01277  -0.0804   0.0778   1.0000 124.0553 301.0000
  11.060   1.4608   0.03436   0.01352  -0.0790   0.0548   1.0000 128.5026 301.0000
  11.146   1.4584   0.03525   0.01405  -0.0780   0.0406   1.0000 131.6822 301.0000
  11.231   1.4593   0.03591   0.01442  -0.0773   0.0329   1.0000 133.6503 301.0000
  11.317   1.4615   0.03646   0.01473  -0.0767   0.0282   1.0000 134.9564 301.0000
  11.402   1.4644   0.03696   0.01500  -0.0761   0.0242   1.0000 136.1587 301.0000
  11.487   1.4673   0.03746   0.01527  -0.0756   0.0210   1.0000 137.2073 301.0000
  11.573   1.4705   0.03794   0.01553  -0.0751   0.0187   1.0000 137.9616 301.0000
  11.658   1.4740   0.03839   0.01577  -0.0746   0.0165   1.0000 138.7971 301.0000
  11.744   1.4767   0.03892   0.01607  -0.0741   0.0139   1.0000 139.8167 301.0000
  11.829   1.4801   0.03939   0.01633  -0.0737   0.0124   1.0000 140.4294 301.0000
  11.915   1.4837   0.03985   0.01658  -0.0732   0.0112   1.0000 140.9469 301.0000
  12.000   1.4877   0.04027   0.01680  -0.0728   0.0102   1.0000 141.4233 301.0000
