  
       XFOIL         Version 6.99
  
 Calculated polar for: Repaneled_Airfoil                               
  
 1 1 Reynolds number fixed          Mach number fixed         
  
 xtrf =   1.000 (top)        1.000 (bottom)  
 Mach =   0.000     Re =     1.000 e 6     Ncrit =   9.000  9.000
  
   alpha    CL        CD       CDp       CM     Top_Xtr  Bot_Xtr  Top_Itr  Bot_Itr
  ------ -------- --------- --------- -------- -------- -------- -------- --------
  -5.000  -0.3108   0.00774   0.00110  -0.0493   0.8729   0.1646  35.7828 190.8386
  -4.915  -0.3015   0.00767   0.00107  -0.0492   0.8703   0.1720  36.1588 191.7831
  -4.829  -0.2922   0.00760   0.00105  -0.0492   0.8673   0.1794  36.5776 192.7186
  -4.744  -0.2829   0.00755   0.00103  -0.0491   0.8647   0.1862  36.9406 193.5539
  -4.658  -0.2735   0.00749   0.00101  -0.0491   0.8617   0.1925  37.3546 194.3245
  -4.573  -0.2640   0.00745   0.00099  -0.0490   0.8589   0.1989  37.7445 195.0901
  -4.487  -0.2546   0.00741   0.00098  -0.0490   0.8563   0.2052  38.0982 195.8494
  -4.402  -0.2451   0.00736   0.00096  -0.0489   0.8533   0.2107  38.5000 196.4917
  -4.317  -0.2356   0.00733   0.00095  -0.0489   0.8507   0.2157  38.8476 197.0708
  -4.231  -0.2261   0.00729   0.00094  -0.0489   0.8481   0.2202  39.1945 197.5980
  -4.146  -0.2164   0.00726   0.00092  -0.0489   0.8454   0.2244  39.5615 198.0737
  -4.060  -0.2069   0.00723   0.00091  -0.0489   0.8429   0.2285  39.8897 198.5418
  -3.975  -0.1972   0.00721   0.00090  -0.0488   0.8401   0.2324  40.2541 198.9906
  -3.889  -0.1877   0.00718   0.00089  -0.0488   0.8372   0.2361  40.6345 199.4092
  -3.804  -0.1781   0.00716   0.00088  -0.0488   0.8345   0.2399  40.9727 199.8344
  -3.719  -0.1684   0.00713   0.00087  -0.0488   0.8313   0.2434  41.3819 200.2281
  -3.633  -0.1589   0.00711   0.00086  -0.0488   0.8283   0.2473  41.7676 200.6593
  -3.548  -0.1492   0.00709   0.00084  -0.0487   0.8254   0.2509  42.1360 201.0595
  -3.462  -0.1396   0.00706   0.00083  -0.0487   0.8220   0.2544  42.5534 201.4374
  -3.377  -0.1300   0.00704   0.00082  -0.0487   0.8191   0.2577  42.9193 201.7987
  -3.292  -0.1203   0.00702   0.00081  -0.0487   0.8159   0.2605  43.3174 202.1053
  -3.206  -0.1107   0.00700   0.00080  -0.0487   0.8127   0.2634  43.7070 202.4262
  -3.121  -0.1011   0.00698   0.00079  -0.0487   0.8099   0.2667  44.0486 202.7740
  -3.035  -0.0914   0.00696   0.00078  -0.0487   0.8066   0.2698  44.4523 203.1104
  -2.950  -0.0818   0.00694   0.00077  -0.0487   0.8035   0.2730  44.8233 203.4607
  -2.864  -0.0721   0.00692   0.00075  -0.0486   0.8004   0.2763  45.1951 203.8075
  -2.779  -0.0624   0.00690   0.00074  -0.0486   0.7969   0.2792  45.6052 204.1168
  -2.608  -0.0432   0.00686   0.00072  -0.0486   0.7901   0.2855  46.4141 204.7847
  -2.523  -0.0336   0.00685   0.00071  -0.0486   0.7865   0.2886  46.8360 205.1145
  -2.437  -0.0240   0.00682   0.00070  -0.0486   0.7827   0.2919  47.2683 205.4636
  -2.352  -0.0143   0.00681   0.00069  -0.0486   0.7788   0.2955  47.7265 205.8395
  -2.266  -0.0047   0.00679   0.00067  -0.0485   0.7750   0.2988  48.1594 206.1873
  -2.181   0.0049   0.00677   0.00066  -0.0485   0.7708   0.3023  48.6316 206.5515
  -2.095   0.0145   0.00676   0.00065  -0.0485   0.7671   0.3060  49.0544 206.9358
  -2.010   0.0241   0.00674   0.00064  -0.0485   0.7629   0.3096  49.5271 207.3121
  -1.925   0.0337   0.00673   0.00063  -0.0485   0.7592   0.3136  49.9471 207.7206
  -1.839   0.0433   0.00671   0.00062  -0.0485   0.7551   0.3173  50.3996 208.1042
  -1.754   0.0529   0.00669   0.00061  -0.0484   0.7511   0.3214  50.8358 208.5225
  -1.668   0.0626   0.00668   0.00060  -0.0484   0.7473   0.3257  51.2604 208.9659
  -1.583   0.0721   0.00666   0.00059  -0.0484   0.7433   0.3300  51.6984 209.3959
  -1.498   0.0817   0.00665   0.00058  -0.0484   0.7396   0.3346  52.1006 209.8604
  -1.412   0.0913   0.00663   0.00057  -0.0484   0.7354   0.3389  52.5524 210.2990
  -1.241   0.1105   0.00660   0.00056  -0.0483   0.7274   0.3485  53.4170 211.2681
  -1.156   0.1200   0.00659   0.00055  -0.0483   0.7233   0.3539  53.8557 211.8053
  -1.070   0.1295   0.00657   0.00054  -0.0483   0.7192   0.3594  54.2883 212.3594
  -0.985   0.1391   0.00656   0.00054  -0.0483   0.7150   0.3658  54.7340 212.9918
  -0.899   0.1486   0.00654   0.00053  -0.0482   0.7111   0.3725  55.1491 213.6524
  -0.814   0.1581   0.00652   0.00053  -0.0482   0.7068   0.3796  55.6000 214.3581
  -0.729   0.1676   0.00651   0.00052  -0.0482   0.7030   0.3875  56.0012 215.1277
  -0.643   0.1772   0.00649   0.00052  -0.0482   0.6988   0.3961  56.4389 215.9709
  -0.558   0.1866   0.00647   0.00051  -0.0481   0.6948   0.4053  56.8500 216.8716
  -0.472   0.1961   0.00644   0.00051  -0.0481   0.6908   0.4154  57.2629 217.8464
  -0.387   0.2055   0.00642   0.00051  -0.0481   0.6865   0.4264  57.7078 218.9185
  -0.301   0.2149   0.00639   0.00051  -0.0480   0.6823   0.4385  58.1364 220.0806
  -0.216   0.2243   0.00636   0.00050  -0.0480   0.6775   0.4517  58.6301 221.3526
  -0.131   0.2335   0.00633   0.00050  -0.0479   0.6728   0.4663  59.1087 222.7489
  -0.045   0.2429   0.00629   0.00050  -0.0479   0.6675   0.4819  59.6502 224.2398
   0.040   0.2520   0.00626   0.00050  -0.0478   0.6625   0.4990  60.1519 225.8799
   0.126   0.2613   0.00622   0.00050  -0.0477   0.6572   0.5177  60.6809 227.6606
   0.211   0.2704   0.00617   0.00050  -0.0476   0.6524   0.5384  61.1688 229.6439
   0.296   0.2795   0.00612   0.00050  -0.0476   0.6472   0.5613  61.6869 231.8468
   0.382   0.2884   0.00606   0.00050  -0.0474   0.6426   0.5860  62.1455 234.2341
   0.467   0.2974   0.00600   0.00051  -0.0473   0.6376   0.6128  62.6456 236.8380
   0.553   0.3062   0.00593   0.00051  -0.0472   0.6329   0.6408  63.1128 239.6132
   0.638   0.3151   0.00586   0.00052  -0.0470   0.6277   0.6698  63.6212 242.5278
   0.724   0.3237   0.00581   0.00052  -0.0468   0.6230   0.6983  64.0832 245.4513
   0.809   0.3325   0.00574   0.00053  -0.0466   0.6181   0.7256  64.5691 248.3371
   0.894   0.3410   0.00568   0.00054  -0.0464   0.6136   0.7527  65.0057 251.2761
   0.980   0.3494   0.00560   0.00055  -0.0461   0.6090   0.7823  65.4610 254.6344
   1.065   0.3572   0.00551   0.00057  -0.0456   0.6046   0.8186  65.8917 258.9759
   1.151   0.3647   0.00543   0.00060  -0.0450   0.6000   0.8578  66.3365 264.0629
   1.236   0.3725   0.00541   0.00063  -0.0445   0.5951   0.8867  66.8189 268.2040
   1.322   0.3808   0.00542   0.00066  -0.0441   0.5902   0.9067  67.2950 271.3412
   1.407   0.3895   0.00543   0.00068  -0.0438   0.5851   0.9214  67.7841 273.8602
   1.492   0.3984   0.00546   0.00070  -0.0435   0.5804   0.9329  68.2356 275.9759
   1.578   0.4077   0.00549   0.00072  -0.0434   0.5756   0.9422  68.7075 277.8157
   1.663   0.4172   0.00552   0.00073  -0.0433   0.5711   0.9500  69.1334 279.4507
   1.749   0.4270   0.00556   0.00075  -0.0432   0.5661   0.9567  69.6224 280.9713
   1.834   0.4371   0.00560   0.00076  -0.0433   0.5607   0.9622  70.1357 282.3037
   1.920   0.4475   0.00564   0.00078  -0.0434   0.5544   0.9670  70.7425 283.5594
   2.005   0.4581   0.00569   0.00079  -0.0436   0.5481   0.9713  71.3520 284.7393
   2.176   0.4799   0.00579   0.00082  -0.0441   0.5349   0.9782  72.6175 286.8381
   2.261   0.4913   0.00585   0.00083  -0.0445   0.5287   0.9808  73.2013 287.7390
   2.347   0.5031   0.00590   0.00084  -0.0449   0.5222   0.9831  73.8289 288.5401
   2.432   0.5149   0.00595   0.00086  -0.0454   0.5155   0.9850  74.4642 289.2848
   2.518   0.5267   0.00601   0.00087  -0.0459   0.5086   0.9868  75.1238 290.0167
   2.603   0.5395   0.00607   0.00089  -0.0466   0.5013   0.9879  75.8261 290.4745
   2.688   0.5518   0.00612   0.00090  -0.0472   0.4940   0.9892  76.5212 291.0729
   2.774   0.5646   0.00619   0.00092  -0.0479   0.4859   0.9902  77.2920 291.5352
   2.859   0.5770   0.00626   0.00093  -0.0486   0.4770   0.9914  78.1462 292.1453
   2.945   0.5896   0.00634   0.00095  -0.0493   0.4673   0.9925  79.0740 292.6963
   3.030   0.6021   0.00641   0.00097  -0.0499   0.4569   0.9935  80.0659 293.2895
   3.116   0.6145   0.00650   0.00099  -0.0506   0.4463   0.9945  81.0851 293.9271
   3.201   0.6270   0.00658   0.00101  -0.0513   0.4355   0.9954  82.1227 294.5055
   3.286   0.6395   0.00667   0.00103  -0.0519   0.4236   0.9963  83.2653 295.1932
   3.372   0.6520   0.00677   0.00105  -0.0526   0.4098   0.9972  84.5999 295.9366
   3.457   0.6643   0.00690   0.00108  -0.0533   0.3930   0.9980  86.2426 296.7374
   3.543   0.6764   0.00706   0.00112  -0.0540   0.3724   0.9988  88.2666 297.6962
   3.628   0.6882   0.00725   0.00117  -0.0546   0.3463   0.9996  90.8549 298.9872
   3.714   0.6979   0.00748   0.00123  -0.0548   0.3161   1.0000  93.9226 301.0000
   3.799   0.7040   0.00773   0.00131  -0.0542   0.2840   1.0000  97.2670 301.0000
   3.884   0.7097   0.00802   0.00140  -0.0536   0.2496   1.0000 100.9813 301.0000
   3.970   0.7159   0.00826   0.00149  -0.0530   0.2246   1.0000 103.7964 301.0000
   4.055   0.7226   0.00845   0.00156  -0.0525   0.2078   1.0000 105.7430 301.0000
   4.141   0.7296   0.00860   0.00162  -0.0521   0.1949   1.0000 107.2715 301.0000
   4.226   0.7368   0.00873   0.00167  -0.0516   0.1844   1.0000 108.5530 301.0000
   4.312   0.7441   0.00885   0.00172  -0.0512   0.1750   1.0000 109.7206 301.0000
   4.397   0.7515   0.00897   0.00177  -0.0508   0.1668   1.0000 110.7589 301.0000
   4.482   0.7589   0.00908   0.00181  -0.0504   0.1596   1.0000 111.6959 301.0000
   4.568   0.7664   0.00918   0.00185  -0.0500   0.1529   1.0000 112.5741 301.0000
   4.653   0.7740   0.00928   0.00189  -0.0496   0.1469   1.0000 113.3827 301.0000
   4.739   0.7815   0.00938   0.00193  -0.0492   0.1415   1.0000 114.1089 301.0000
   4.824   0.7892   0.00947   0.00196  -0.0489   0.1364   1.0000 114.8110 301.0000
   4.910   0.7969   0.00955   0.00200  -0.0485   0.1319   1.0000 115.4413 301.0000
   4.995   0.8045   0.00965   0.00203  -0.0482   0.1276   1.0000 116.0506 301.0000
   5.080   0.8123   0.00973   0.00207  -0.0478   0.1237   1.0000 116.6267 301.0000
   5.166   0.8200   0.00982   0.00211  -0.0475   0.1201   1.0000 117.1499 301.0000
   5.251   0.8278   0.00990   0.00214  -0.0471   0.1163   1.0000 117.7017 301.0000
   5.337   0.8356   0.00999   0.00218  -0.0468   0.1129   1.0000 118.2171 301.0000
   5.422   0.8434   0.01007   0.00221  -0.0464   0.1092   1.0000 118.7806 301.0000
   5.508   0.8511   0.01016   0.00225  -0.0461   0.1058   1.0000 119.3063 301.0000
   5.593   0.8588   0.01026   0.00229  -0.0457   0.1023   1.0000 119.8535 301.0000
   5.678   0.8667   0.01034   0.00233  -0.0454   0.0990   1.0000 120.3737 301.0000
   5.764   0.8743   0.01044   0.00237  -0.0450   0.0956   1.0000 120.9214 301.0000
   5.849   0.8822   0.01053   0.00240  -0.0447   0.0924   1.0000 121.4424 301.0000
   6.020   0.8978   0.01071   0.00249  -0.0441   0.0864   1.0000 122.4460 301.0000
   6.106   0.9055   0.01082   0.00253  -0.0437   0.0836   1.0000 122.9243 301.0000
   6.191   0.9136   0.01091   0.00257  -0.0434   0.0810   1.0000 123.3885 301.0000
   6.276   0.9214   0.01101   0.00262  -0.0431   0.0782   1.0000 123.8784 301.0000
   6.362   0.9294   0.01110   0.00266  -0.0428   0.0757   1.0000 124.3275 301.0000
   6.447   0.9373   0.01120   0.00271  -0.0426   0.0731   1.0000 124.7890 301.0000
   6.533   0.9452   0.01130   0.00276  -0.0423   0.0709   1.0000 125.1979 301.0000
   6.618   0.9533   0.01140   0.00280  -0.0420   0.0687   1.0000 125.6137 301.0000
   6.704   0.9610   0.01152   0.00286  -0.0417   0.0666   1.0000 126.0023 301.0000
   6.789   0.9693   0.01161   0.00290  -0.0414   0.0647   1.0000 126.3788 301.0000
   6.874   0.9772   0.01171   0.00295  -0.0412   0.0627   1.0000 126.7760 301.0000
   6.960   0.9852   0.01182   0.00301  -0.0409   0.0609   1.0000 127.1325 301.0000
   7.045   0.9933   0.01192   0.00306  -0.0407   0.0590   1.0000 127.5032 301.0000
   7.131   1.0012   0.01204   0.00312  -0.0404   0.0573   1.0000 127.8644 301.0000
   7.216   1.0093   0.01214   0.00317  -0.0401   0.0557   1.0000 128.1887 301.0000
   7.301   1.0173   0.01225   0.00322  -0.0399   0.0541   1.0000 128.5217 301.0000
   7.387   1.0252   0.01238   0.00329  -0.0396   0.0526   1.0000 128.8436 301.0000
   7.472   1.0331   0.01249   0.00335  -0.0393   0.0512   1.0000 129.1400 301.0000
   7.558   1.0413   0.01259   0.00340  -0.0391   0.0498   1.0000 129.4603 301.0000
   7.643   1.0491   0.01271   0.00346  -0.0388   0.0483   1.0000 129.7820 301.0000
   7.729   1.0570   0.01284   0.00353  -0.0385   0.0470   1.0000 130.0774 301.0000
   7.814   1.0651   0.01294   0.00358  -0.0383   0.0457   1.0000 130.3730 301.0000
   7.899   1.0730   0.01306   0.00364  -0.0380   0.0444   1.0000 130.6725 301.0000
   7.985   1.0806   0.01320   0.00372  -0.0377   0.0431   1.0000 130.9589 301.0000
   8.070   1.0886   0.01331   0.00378  -0.0375   0.0421   1.0000 131.2088 301.0000
   8.156   1.0966   0.01343   0.00384  -0.0372   0.0410   1.0000 131.4686 301.0000
   8.241   1.1043   0.01356   0.00391  -0.0370   0.0400   1.0000 131.7168 301.0000
   8.327   1.1117   0.01372   0.00399  -0.0366   0.0390   1.0000 131.9587 301.0000
   8.412   1.1197   0.01382   0.00405  -0.0364   0.0382   1.0000 132.1681 301.0000
   8.498   1.1277   0.01393   0.00411  -0.0361   0.0372   1.0000 132.3981 301.0000
   8.583   1.1354   0.01406   0.00418  -0.0359   0.0363   1.0000 132.6282 301.0000
   8.668   1.1429   0.01421   0.00426  -0.0356   0.0355   1.0000 132.8465 301.0000
   8.754   1.1504   0.01435   0.00434  -0.0352   0.0347   1.0000 133.0509 301.0000
   8.839   1.1583   0.01446   0.00440  -0.0350   0.0340   1.0000 133.2392 301.0000
   8.925   1.1660   0.01459   0.00447  -0.0347   0.0332   1.0000 133.4349 301.0000
   9.010   1.1736   0.01472   0.00454  -0.0344   0.0325   1.0000 133.6228 301.0000
   9.095   1.1809   0.01488   0.00462  -0.0341   0.0319   1.0000 133.8024 301.0000
   9.181   1.1879   0.01506   0.00472  -0.0337   0.0312   1.0000 133.9885 301.0000
   9.266   1.1956   0.01517   0.00479  -0.0334   0.0307   1.0000 134.1293 301.0000
   9.352   1.2032   0.01530   0.00486  -0.0331   0.0301   1.0000 134.2823 301.0000
   9.437   1.2106   0.01544   0.00494  -0.0328   0.0296   1.0000 134.4395 301.0000
   9.523   1.2178   0.01559   0.00502  -0.0325   0.0290   1.0000 134.5916 301.0000
   9.608   1.2249   0.01575   0.00511  -0.0321   0.0285   1.0000 134.7384 301.0000
   9.694   1.2316   0.01594   0.00521  -0.0317   0.0280   1.0000 134.8887 301.0000
   9.779   1.2382   0.01613   0.00532  -0.0313   0.0275   1.0000 135.0316 301.0000
   9.864   1.2457   0.01625   0.00539  -0.0310   0.0271   1.0000 135.1456 301.0000
   9.950   1.2530   0.01638   0.00547  -0.0307   0.0267   1.0000 135.2743 301.0000
  10.035   1.2602   0.01652   0.00555  -0.0303   0.0262   1.0000 135.4066 301.0000
  10.121   1.2672   0.01668   0.00563  -0.0300   0.0258   1.0000 135.5373 301.0000
  10.206   1.2740   0.01684   0.00572  -0.0296   0.0254   1.0000 135.6625 301.0000
  10.291   1.2806   0.01702   0.00582  -0.0291   0.0250   1.0000 135.7823 301.0000
  10.377   1.2867   0.01722   0.00593  -0.0287   0.0246   1.0000 135.9027 301.0000
  10.462   1.2926   0.01743   0.00605  -0.0281   0.0242   1.0000 136.0192 301.0000
  10.548   1.2995   0.01758   0.00613  -0.0278   0.0239   1.0000 136.1063 301.0000
  10.633   1.3061   0.01773   0.00622  -0.0273   0.0236   1.0000 136.2018 301.0000
  10.719   1.3122   0.01788   0.00630  -0.0268   0.0233   1.0000 136.2982 301.0000
  10.804   1.3181   0.01804   0.00639  -0.0263   0.0230   1.0000 136.3934 301.0000
  10.889   1.3238   0.01821   0.00648  -0.0257   0.0227   1.0000 136.4870 301.0000
  10.975   1.3294   0.01839   0.00658  -0.0251   0.0225   1.0000 136.5782 301.0000
  11.060   1.3348   0.01858   0.00668  -0.0245   0.0222   1.0000 136.6664 301.0000
  11.146   1.3400   0.01879   0.00679  -0.0239   0.0219   1.0000 136.7536 301.0000
  11.231   1.3448   0.01902   0.00692  -0.0232   0.0216   1.0000 136.8434 301.0000
  11.317   1.3491   0.01928   0.00707  -0.0225   0.0213   1.0000 136.9390 301.0000
  11.402   1.3536   0.01954   0.00722  -0.0218   0.0211   1.0000 137.0202 301.0000
  11.487   1.3593   0.01972   0.00733  -0.0213   0.0209   1.0000 137.0783 301.0000
  11.573   1.3648   0.01992   0.00744  -0.0208   0.0207   1.0000 137.1435 301.0000
  11.658   1.3702   0.02012   0.00756  -0.0202   0.0205   1.0000 137.2133 301.0000
  11.744   1.3755   0.02033   0.00769  -0.0197   0.0203   1.0000 137.2855 301.0000
  11.829   1.3807   0.02055   0.00782  -0.0192   0.0201   1.0000 137.3583 301.0000
  11.915   1.3859   0.02078   0.00795  -0.0186   0.0199   1.0000 137.4307 301.0000
  12.000   1.3909   0.02102   0.00809  -0.0181   0.0197   1.0000 137.5016 301.0000
