
 ===================================================
  XFOIL Version 6.99
  Copyright (C) 2000   Mark Drela, Harold Youngren

  This software comes with ABSOLUTELY NO WARRANTY,
    subject to the GNU General Public License.

  Caveat computor
 ===================================================

 File  xfoil.def  not found

   QUIT    Exit program

  .OPER    Direct operating point(s)
  .MDES    Complex mapping design routine
  .QDES    Surface speed design routine
  .GDES    Geometry design routine

   SAVE f  Write airfoil to labeled coordinate file
   PSAV f  Write airfoil to plain coordinate file
   ISAV f  Write airfoil to ISES coordinate file
   MSAV f  Write airfoil to MSES coordinate file
   REVE    Reverse written-airfoil node ordering
   DELI i  Change written-airfoil file delimiters

   LOAD f  Read buffer airfoil from coordinate file
   NACA i  Set NACA 4,5-digit airfoil and buffer airfoil
   INTE    Set buffer airfoil by interpolating two airfoils
   NORM    Buffer airfoil normalization toggle
   HALF    Halve the number of points in buffer airfoil
   XYCM rr Change CM reference location, currently  0.25000 0.00000

   BEND    Display structural properties of current airfoil

   PCOP    Set current-airfoil panel nodes directly from buffer airfoil points
   PANE    Set current-airfoil panel nodes ( 160 ) based on curvature
  .PPAR    Show/change paneling

  .PLOP    Plotting options

   WDEF f  Write  current-settings file
   RDEF f  Reread current-settings file
   NAME s  Specify new airfoil name
   NINC    Increment name version number

   Z       Zoom    | (available in all menus)
   U       Unzoom  | 

 XFOIL   c>  
 XFOIL   c>   Max thickness =     0.120032  at x =   0.297
 Max camber    =     0.019999  at x =   0.403

 Buffer airfoil set using 245 points

 Blunt trailing edge.  Gap =  0.00252

 Paneling parameters used...
   Number of panel nodes       160
   Panel bunching parameter    1.000
   TE/LE panel density ratio   0.150
   Refined-area/LE panel density ratio    0.200
   Top    side refined area x/c limits  1.000 1.000
   Bottom side refined area x/c limits  1.000 1.000

 XFOIL   c>  
.OPERi   c>  
 M  =    0.0000
 Re =  0.5000E+06

.OPERv   c>  
 Sonic Cp =     -6.95      Sonic Q/Qinf =     3.070


.OPERv   c>  
.OPERv   c>  
 Xtr/c     =  1.0000    top    side
 Xtr/c     =  1.0000    bottom side
 NcritT    =    9.00   ( 0.070 % turb. level )
 NcritB    =    9.00   ( 0.070 % turb. level )
 Vacc      =  0.0100
 WakeL/c   =   1.000

 Klag  =  5.6000     Uxwt  =    1.00       Kdl =  0.9000
 A     =  6.7000     B     =  0.7500       KCt = 0.01485
 CtiniK=  1.8000     CtiniX=  3.3000

..VPAR   c>  
..VPAR   c>   PACC command not recognized.  Type a "?" for list

..VPAR   c>   POLA command not recognized.  Type a "?" for list

..VPAR   c>  
.OPERv   c>   Calculating unit vorticity distributions ...
 Calculating wake trajectory ...
 Calculating source influence matrix ...

 Solving BL system ...

 Initializing BL ...
    side            1  ...
 MRCHUE: Inverse mode at  57     Hk =   4.220
 MRCHUE: Inverse mode at  58     Hk =   4.831
 MRCHUE: Inverse mode at  59     Hk =   5.433
 MRCHUE: Inverse mode at  60     Hk =   6.026
 MRCHUE: Inverse mode at  61     Hk =   6.613
 MRCHUE: Inverse mode at  62     Hk =   7.195
 MRCHUE: Inverse mode at  63     Hk =   6.643
 MRCHUE: Inverse mode at  64     Hk =   4.149
 MRCHUE: Inverse mode at  65     Hk =   2.521
    side            2  ...
 MRCHUE: Inverse mode at  36     Hk =   4.624
 MRCHUE: Inverse mode at  37     Hk =   5.561
 MRCHUE: Inverse mode at  38     Hk =   6.473
 MRCHUE: Inverse mode at  39     Hk =   3.534
 MRCHUE: Inverse mode at  83     Hk =   2.500

 Side 1  free  transition at x/c =  0.7550   63
 Side 2  free  transition at x/c =  0.2669   39

   1   rms: 0.1624E+00   max: -.1108E+01   T at   39  2   RLX: 0.451
       a = -2.000      CL =  0.0236
      Cm = -0.0573     CD =  0.00826   =>   CDf =  0.00654    CDp =  0.00171

 MRCHDU: Convergence failed at  65  side 1    Res =  0.1454E+02
 Side 1  free  transition at x/c =  0.7784   65
 Side 2  free  transition at x/c =  0.2795   40

   2   rms: 0.1153E+00   max: -.8164E+00   C at   40  2   RLX: 0.612
       a = -2.000      CL =  0.0281
      Cm = -0.0593     CD =  0.00751   =>   CDf =  0.00626    CDp =  0.00125

 Side 1  free  transition at x/c =  0.8117   67
 Side 2  free  transition at x/c =  0.3160   42

   3   rms: 0.7107E-01   max: -.7495E+00   C at   42  2   RLX: 0.667
       a = -2.000      CL =  0.0158
      Cm = -0.0566     CD =  0.00775   =>   CDf =  0.00596    CDp =  0.00178

 Side 1  free  transition at x/c =  0.8223   67
 Side 2  free  transition at x/c =  0.3330   43

   4   rms: 0.3700E-01   max: -.5745E+00   C at   43  2   RLX: 0.870
       a = -2.000      CL =  0.0231
      Cm = -0.0580     CD =  0.00791   =>   CDf =  0.00576    CDp =  0.00215

 Side 1  free  transition at x/c =  0.8302   68
 Side 2  free  transition at x/c =  0.3453   44

   5   rms: 0.1709E-01   max: -.2580E+00   C at   44  2
       a = -2.000      CL =  0.0262
      Cm = -0.0588     CD =  0.00793   =>   CDf =  0.00567    CDp =  0.00225

 Side 1  free  transition at x/c =  0.8309   68
 Side 2  free  transition at x/c =  0.3545   44

   6   rms: 0.1215E-02   max: 0.2076E-01   C at   44  2
       a = -2.000      CL =  0.0265
      Cm = -0.0588     CD =  0.00794   =>   CDf =  0.00559    CDp =  0.00235

 Side 1  free  transition at x/c =  0.8310   68
 Side 2  free  transition at x/c =  0.3539   44

   7   rms: 0.7011E-05   max: 0.1104E-03   C at   44  2
       a = -2.000      CL =  0.0265
      Cm = -0.0588     CD =  0.00794   =>   CDf =  0.00559    CDp =  0.00235
      9.000    4.2096   0.007939   0.002102   0.002229   0.000127    0.8310     #
 Calculating wake trajectory ...
 Calculating source influence matrix ...

 Solving BL system ...

 Side 1  free  transition at x/c =  0.8310   68
 Side 2  free  transition at x/c =  0.3539   44

   1   rms: 0.2739E+00   max: -.4230E+01   C at   44  2   RLX: 0.118
       a = -1.000      CL =  0.0397
      Cm = -0.0586     CD =  0.00785   =>   CDf =  0.00559    CDp =  0.00226

 Side 1  free  transition at x/c =  0.8244   67
 Side 2  free  transition at x/c =  0.3704   45

   2   rms: 0.2394E+00   max: -.3696E+01   C at   45  2   RLX: 0.135
       a = -1.000      CL =  0.0533
      Cm = -0.0584     CD =  0.00777   =>   CDf =  0.00560    CDp =  0.00217

 Side 1  free  transition at x/c =  0.8159   68
 Side 2  free  transition at x/c =  0.3857   45

   3   rms: 0.2288E+00   max: -.3443E+01   C at   45  2   RLX: 0.145
       a = -1.000      CL =  0.0658
      Cm = -0.0581     CD =  0.00771   =>   CDf =  0.00556    CDp =  0.00215

 Side 1  free  transition at x/c =  0.8094   68
 Side 2  free  transition at x/c =  0.3988   46

   4   rms: 0.2061E+00   max: -.3077E+01   C at   46  2   RLX: 0.163
       a = -1.000      CL =  0.0779
      Cm = -0.0579     CD =  0.00767   =>   CDf =  0.00557    CDp =  0.00210

 Side 1  free  transition at x/c =  0.8044   67
 Side 2  free  transition at x/c =  0.4122   47

   5   rms: 0.1784E+00   max: -.2384E+01   C at   47  2   RLX: 0.210
       a = -1.000      CL =  0.0908
      Cm = -0.0578     CD =  0.00755   =>   CDf =  0.00555    CDp =  0.00200

 Side 1  free  transition at x/c =  0.7961   67
 Side 2  free  transition at x/c =  0.4306   48

   6   rms: 0.1757E+00   max: -.2879E+01   C at   48  2   RLX: 0.174
       a = -1.000      CL =  0.0991
      Cm = -0.0576     CD =  0.00753   =>   CDf =  0.00550    CDp =  0.00203

 Side 1  free  transition at x/c =  0.7921   66
 Side 2  free  transition at x/c =  0.4458   49

   7   rms: 0.1667E+00   max: -.2844E+01   C at   49  2   RLX: 0.176
       a = -1.000      CL =  0.1060
      Cm = -0.0576     CD =  0.00746   =>   CDf =  0.00546    CDp =  0.00200

 Side 1  free  transition at x/c =  0.7880   66
 Side 2  free  transition at x/c =  0.4622   49

   8   rms: 0.1263E+00   max: -.2374E+01   C at   49  2   RLX: 0.211
       a = -1.000      CL =  0.1132
      Cm = -0.0575     CD =  0.00744   =>   CDf =  0.00540    CDp =  0.00204

 Side 1  free  transition at x/c =  0.7839   66
 Side 2  free  transition at x/c =  0.4844   51

   9   rms: 0.1473E+00   max: -.2804E+01   C at   51  2   RLX: 0.178
       a = -1.000      CL =  0.1171
      Cm = -0.0573     CD =  0.00733   =>   CDf =  0.00532    CDp =  0.00201

 Side 1  free  transition at x/c =  0.7814   66
 Side 2  free  transition at x/c =  0.4973   52

  10   rms: 0.1188E+00   max: -.2153E+01   C at   52  2   RLX: 0.232
       a = -1.000      CL =  0.1218
      Cm = -0.0572     CD =  0.00728   =>   CDf =  0.00530    CDp =  0.00198

 Side 1  free  transition at x/c =  0.7789   66
 Side 2  free  transition at x/c =  0.5128   52

  11   rms: 0.7307E-01   max: -.1373E+01   C at   52  2   RLX: 0.364
       a = -1.000      CL =  0.1277
      Cm = -0.0571     CD =  0.00727   =>   CDf =  0.00526    CDp =  0.00201

 Side 1  free  transition at x/c =  0.7760   65
 Side 2  free  transition at x/c =  0.5439   54

  12   rms: 0.7049E-01   max: -.1371E+01   C at   54  2   RLX: 0.365
       a = -1.000      CL =  0.1302
      Cm = -0.0567     CD =  0.00714   =>   CDf =  0.00514    CDp =  0.00200

 Side 1  free  transition at x/c =  0.7739   66
 Side 2  free  transition at x/c =  0.5600   54

  13   rms: 0.3512E-01   max: -.6511E+00   C at   54  2   RLX: 0.768
       a = -1.000      CL =  0.1348
      Cm = -0.0566     CD =  0.00709   =>   CDf =  0.00510    CDp =  0.00199

 Side 1  free  transition at x/c =  0.7709   66
 Side 2  free  transition at x/c =  0.5849   56

  14   rms: 0.7484E-02   max: -.1340E+00   C at   56  2
       a = -1.000      CL =  0.1357
      Cm = -0.0564     CD =  0.00705   =>   CDf =  0.00501    CDp =  0.00204

 Side 1  free  transition at x/c =  0.7701   66
 Side 2  free  transition at x/c =  0.5910   56

  15   rms: 0.9704E-03   max: -.1884E-01   C at   56  2
       a = -1.000      CL =  0.1358
      Cm = -0.0564     CD =  0.00705   =>   CDf =  0.00500    CDp =  0.00206

 Side 1  free  transition at x/c =  0.7702   66
 Side 2  free  transition at x/c =  0.5916   56

  16   rms: 0.1658E-05   max: -.2487E-04   D at   59  2
       a = -1.000      CL =  0.1358
      Cm = -0.0564     CD =  0.00705   =>   CDf =  0.00499    CDp =  0.00206
      9.000    4.0456   0.007053   0.002144   0.002205   0.000061    0.7702     #
 Calculating wake trajectory ...
 Calculating source influence matrix ...

 Solving BL system ...

 Side 1  free  transition at x/c =  0.7702   66
 Side 2  free  transition at x/c =  0.5916   56

   1   rms: 0.3100E+00   max: -.5112E+01   C at   56  2   RLX: 0.098
       a =  0.000      CL =  0.1464
      Cm = -0.0561     CD =  0.00699   =>   CDf =  0.00499    CDp =  0.00200

 Side 1  free  transition at x/c =  0.7629   66
 Side 2  free  transition at x/c =  0.6140   57

   2   rms: 0.2114E+00   max: -.2646E+01   C at   57  2   RLX: 0.189
       a =  0.000      CL =  0.1656
      Cm = -0.0558     CD =  0.00700   =>   CDf =  0.00497    CDp =  0.00203

 Side 1  free  transition at x/c =  0.7528   65
 Side 2  free  transition at x/c =  0.6640   60

   3   rms: 0.1365E+00   max: 0.5035E+00   C at   61  2
       a =  0.000      CL =  0.2507
      Cm = -0.0549     CD =  0.00706   =>   CDf =  0.00485    CDp =  0.00221

 Side 1  free  transition at x/c =  0.6987   63
 Side 2  free  transition at x/c =  0.8107   68

   4   rms: 0.5373E-01   max: 0.7911E+00   D at   59  2
       a =  0.000      CL =  0.2402
      Cm = -0.0521     CD =  0.00656   =>   CDf =  0.00470    CDp =  0.00186

 Side 1  free  transition at x/c =  0.7066   63
 Side 2  free  transition at x/c =  0.8043   68

   5   rms: 0.2276E-01   max: -.3596E+00   C at   68  2
       a =  0.000      CL =  0.2415
      Cm = -0.0525     CD =  0.00657   =>   CDf =  0.00456    CDp =  0.00201

 Side 1  free  transition at x/c =  0.7024   63
 Side 2  free  transition at x/c =  0.8178   68

   6   rms: 0.3079E-02   max: 0.3771E-01   C at   68  2
       a =  0.000      CL =  0.2416
      Cm = -0.0525     CD =  0.00660   =>   CDf =  0.00451    CDp =  0.00210

 Side 1  free  transition at x/c =  0.7023   63
 Side 2  free  transition at x/c =  0.8121   68

   7   rms: 0.6938E-03   max: -.1251E-01   C at   68  2
       a =  0.000      CL =  0.2416
      Cm = -0.0526     CD =  0.00661   =>   CDf =  0.00452    CDp =  0.00209

 Side 1  free  transition at x/c =  0.7023   63
 Side 2  free  transition at x/c =  0.8125   68

   8   rms: 0.1113E-05   max: -.1924E-04   D at   71  2
       a =  0.000      CL =  0.2416
      Cm = -0.0526     CD =  0.00661   =>   CDf =  0.00452    CDp =  0.00209
      9.000    4.0024   0.006608   0.002157   0.002184   0.000027    0.7023     #
 Calculating wake trajectory ...
 Calculating source influence matrix ...

 Solving BL system ...

 Side 1  free  transition at x/c =  0.7023   63
 Side 2  free  transition at x/c =  0.8125   68

   1   rms: 0.2343E+00   max: -.3034E+01   C at   68  2   RLX: 0.165
       a =  1.000      CL =  0.2588
      Cm = -0.0518     CD =  0.00659   =>   CDf =  0.00452    CDp =  0.00207

 Side 1  free  transition at x/c =  0.6906   62
 Side 2  free  transition at x/c =  0.8403   70

   2   rms: 0.1959E+00   max: -.2560E+01   C at   70  2   RLX: 0.195
       a =  1.000      CL =  0.2757
      Cm = -0.0510     CD =  0.00658   =>   CDf =  0.00450    CDp =  0.00208

 Side 1  free  transition at x/c =  0.6775   61
 Side 2  free  transition at x/c =  0.8614   71

   3   rms: 0.1265E+00   max: -.9953E+00   C at   71  2   RLX: 0.502
       a =  1.000      CL =  0.3127
      Cm = -0.0500     CD =  0.00662   =>   CDf =  0.00450    CDp =  0.00212

 Side 1  free  transition at x/c =  0.6522   61
 Side 2  free  transition at x/c =  0.9130   73

   4   rms: 0.7870E-01   max: -.7565E+00   C at   73  2   RLX: 0.661
       a =  1.000      CL =  0.3409
      Cm = -0.0495     CD =  0.00678   =>   CDf =  0.00451    CDp =  0.00227

 Side 1  free  transition at x/c =  0.6395   60
 Side 2  free  transition at x/c =  0.9323   74

   5   rms: 0.2115E-01   max: -.1450E+00   T at   74  2
       a =  1.000      CL =  0.3482
      Cm = -0.0482     CD =  0.00686   =>   CDf =  0.00454    CDp =  0.00231

 Side 1  free  transition at x/c =  0.6332   60
 Side 2  free  transition at x/c =  0.9609   76

   6   rms: 0.2719E-01   max: 0.3909E+00   C at   76  2
       a =  1.000      CL =  0.3535
      Cm = -0.0493     CD =  0.00686   =>   CDf =  0.00454    CDp =  0.00232

 Side 1  free  transition at x/c =  0.6333   60
 Side 2  free  transition at x/c =  0.9527   76

   7   rms: 0.2079E-02   max: -.1976E-01   D at   79  2
       a =  1.000      CL =  0.3553
      Cm = -0.0497     CD =  0.00688   =>   CDf =  0.00454    CDp =  0.00235

 Side 1  free  transition at x/c =  0.6332   60
 Side 2  free  transition at x/c =  0.9519   75

   8   rms: 0.1308E-03   max: 0.9085E-03   D at   77  2
       a =  1.000      CL =  0.3554
      Cm = -0.0498     CD =  0.00688   =>   CDf =  0.00454    CDp =  0.00234

 Side 1  free  transition at x/c =  0.6331   60
 Side 2  free  transition at x/c =  0.9519   75

   9   rms: 0.7204E-06   max: -.6898E-05   C at   75  2
       a =  1.000      CL =  0.3554
      Cm = -0.0498     CD =  0.00688   =>   CDf =  0.00454    CDp =  0.00234
      9.000    4.0831   0.006883   0.002103   0.002214   0.000111    0.6331     #
 Calculating wake trajectory ...
 Calculating source influence matrix ...

 Solving BL system ...

 Side 1  free  transition at x/c =  0.6331   60
 Side 2  free  transition at x/c =  0.9519   75

   1   rms: 0.1863E+00   max: 0.1223E+01   C at   60  1   RLX: 0.665
       a =  2.000      CL =  0.4242
      Cm = -0.0468     CD =  0.00729   =>   CDf =  0.00454    CDp =  0.00276

 MRCHDU: Convergence failed at  78  side 2    Res =  0.2577E+01
 Side 1  free  transition at x/c =  0.5907   58
 Side 2 forced transition at x/c =  1.0000   78

   2   rms: 0.1365E+00   max: 0.1302E+01   C at   78  2   RLX: 0.895
       a =  2.000      CL =  0.5285
      Cm = -0.0617     CD =  0.00715   =>   CDf =  0.00477    CDp =  0.00238

 Side 1  free  transition at x/c =  0.5622   57
 Side 2  free  transition at x/c =  0.9833   76

   3   rms: 0.3569E-01   max: -.3158E+00   D at   77  2
       a =  2.000      CL =  0.5182
      Cm = -0.0586     CD =  0.00749   =>   CDf =  0.00492    CDp =  0.00257

 Side 1  free  transition at x/c =  0.5641   58
 Side 2  free  transition at x/c =  0.9943   77

   4   rms: 0.5375E-02   max: -.5436E-01   D at   57  1
       a =  2.000      CL =  0.5196
      Cm = -0.0589     CD =  0.00752   =>   CDf =  0.00491    CDp =  0.00262

 Side 1  free  transition at x/c =  0.5635   58
 Side 2  free  transition at x/c =  0.9932   77

   5   rms: 0.3364E-03   max: 0.4538E-02   C at   58  1
       a =  2.000      CL =  0.5195
      Cm = -0.0589     CD =  0.00753   =>   CDf =  0.00489    CDp =  0.00264

 Side 1  free  transition at x/c =  0.5634   58
 Side 2  free  transition at x/c =  0.9933   77

   6   rms: 0.1992E-05   max: -.1969E-04   D at   59  1
       a =  2.000      CL =  0.5195
      Cm = -0.0589     CD =  0.00753   =>   CDf =  0.00489    CDp =  0.00264
      9.000    4.2123   0.007528   0.002097   0.002269   0.000173    0.5634     #
 Calculating wake trajectory ...
 Calculating source influence matrix ...

 Solving BL system ...

 Side 1  free  transition at x/c =  0.5634   58
 Side 2  free  transition at x/c =  0.9933   77

   1   rms: 0.2253E+00   max: 0.1244E+01   C at   58  1   RLX: 0.517
       a =  3.000      CL =  0.6120
      Cm = -0.0656     CD =  0.00798   =>   CDf =  0.00488    CDp =  0.00310

 Side 1  free  transition at x/c =  0.5269   56
 Side 2 forced transition at x/c =  1.0000   76

   2   rms: 0.8340E-01   max: -.5250E+00   D at   57  1   RLX: 0.952
       a =  3.000      CL =  0.6441
      Cm = -0.0609     CD =  0.00787   =>   CDf =  0.00505    CDp =  0.00281

 Side 1  free  transition at x/c =  0.5000   56
 Side 2 forced transition at x/c =  1.0000   75

   3   rms: 0.1722E-01   max: -.2107E+00   D at   56  1
       a =  3.000      CL =  0.6432
      Cm = -0.0601     CD =  0.00804   =>   CDf =  0.00519    CDp =  0.00285

 Side 1  free  transition at x/c =  0.5025   56
 Side 2 forced transition at x/c =  1.0000   75

   4   rms: 0.2367E-02   max: 0.3627E-01   C at   56  1
       a =  3.000      CL =  0.6434
      Cm = -0.0601     CD =  0.00805   =>   CDf =  0.00513    CDp =  0.00292

 Side 1  free  transition at x/c =  0.5016   56
 Side 2 forced transition at x/c =  1.0000   75

   5   rms: 0.2913E-04   max: -.3859E-03   D at   58  1
       a =  3.000      CL =  0.6434
      Cm = -0.0601     CD =  0.00805   =>   CDf =  0.00514    CDp =  0.00291
      9.000    4.2612   0.008047   0.002139   0.002309   0.000170    0.5016     #
 Calculating wake trajectory ...
 Calculating source influence matrix ...

 Solving BL system ...

 Side 1  free  transition at x/c =  0.5016   56
 Side 2 forced transition at x/c =  1.0000   75

   1   rms: 0.1765E+00   max: 0.1046E+01   C at   56  1   RLX: 0.635
       a =  4.000      CL =  0.7053
      Cm = -0.0573     CD =  0.00851   =>   CDf =  0.00514    CDp =  0.00337

 Side 1  free  transition at x/c =  0.4615   53
 Side 2 forced transition at x/c =  1.0000   75

   2   rms: 0.6651E-01   max: -.5474E+00   D at   54  1   RLX: 0.913
       a =  4.000      CL =  0.7420
      Cm = -0.0564     CD =  0.00849   =>   CDf =  0.00531    CDp =  0.00319

 Side 1  free  transition at x/c =  0.4400   53
 Side 2 forced transition at x/c =  1.0000   74

   3   rms: 0.1174E-01   max: -.1414E+00   D at   55  1
       a =  4.000      CL =  0.7431
      Cm = -0.0559     CD =  0.00868   =>   CDf =  0.00536    CDp =  0.00332

 Side 1  free  transition at x/c =  0.4403   53
 Side 2 forced transition at x/c =  1.0000   74

   4   rms: 0.8601E-03   max: 0.1146E-01   C at   53  1
       a =  4.000      CL =  0.7431
      Cm = -0.0559     CD =  0.00868   =>   CDf =  0.00534    CDp =  0.00335

 Side 1  free  transition at x/c =  0.4400   53
 Side 2 forced transition at x/c =  1.0000   74

   5   rms: 0.4100E-05   max: -.7130E-04   D at   55  1
       a =  4.000      CL =  0.7431
      Cm = -0.0559     CD =  0.00868   =>   CDf =  0.00534    CDp =  0.00334
      9.000    4.0442   0.008684   0.002240   0.002295   0.000054    0.4400     #
 Calculating wake trajectory ...
 Calculating source influence matrix ...

 Solving BL system ...

 Side 1  free  transition at x/c =  0.4400   53
 Side 2 forced transition at x/c =  1.0000   74

   1   rms: 0.1710E+00   max: 0.1073E+01   C at   53  1   RLX: 0.656
       a =  5.000      CL =  0.8088
      Cm = -0.0531     CD =  0.00916   =>   CDf =  0.00529    CDp =  0.00387

 Side 1  free  transition at x/c =  0.3878   51
 Side 2 forced transition at x/c =  1.0000   73

   2   rms: 0.6155E-01   max: -.4497E+00   D at   51  1
       a =  5.000      CL =  0.8431
      Cm = -0.0516     CD =  0.00955   =>   CDf =  0.00554    CDp =  0.00401

 Side 1  free  transition at x/c =  0.3596   49
 Side 2 forced transition at x/c =  1.0000   73

   3   rms: 0.1191E-01   max: 0.1782E+00   D at   50  1
       a =  5.000      CL =  0.8425
      Cm = -0.0515     CD =  0.00957   =>   CDf =  0.00560    CDp =  0.00397

 Side 1  free  transition at x/c =  0.3634   49
 Side 2 forced transition at x/c =  1.0000   73

   4   rms: 0.1251E-02   max: 0.2407E-01   C at   49  1
       a =  5.000      CL =  0.8426
      Cm = -0.0516     CD =  0.00956   =>   CDf =  0.00557    CDp =  0.00399

 Side 1  free  transition at x/c =  0.3627   49
 Side 2 forced transition at x/c =  1.0000   73

   5   rms: 0.7324E-05   max: -.1147E-03   C at   49  1
       a =  5.000      CL =  0.8426
      Cm = -0.0515     CD =  0.00956   =>   CDf =  0.00557    CDp =  0.00399
      9.000    3.6347   0.009557   0.000000   0.000000   0.000000    0.3627     #
 Calculating wake trajectory ...
 Calculating source influence matrix ...

 Solving BL system ...

 Side 1  free  transition at x/c =  0.3627   49
 Side 2 forced transition at x/c =  1.0000   73

   1   rms: 0.1834E+00   max: 0.1733E+01   C at   49  1   RLX: 0.591
       a =  6.000      CL =  0.9029
      Cm = -0.0492     CD =  0.01013   =>   CDf =  0.00550    CDp =  0.00463

 Side 1  free  transition at x/c =  0.2944   46
 Side 2 forced transition at x/c =  1.0000   72

   2   rms: 0.7037E-01   max: -.5036E+00   D at   46  1   RLX: 0.993
       a =  6.000      CL =  0.9400
      Cm = -0.0470     CD =  0.01095   =>   CDf =  0.00586    CDp =  0.00510

 Side 1  free  transition at x/c =  0.2475   43
 Side 2 forced transition at x/c =  1.0000   72

   3   rms: 0.1743E-01   max: -.2185E+00   C at   43  1
       a =  6.000      CL =  0.9389
      Cm = -0.0468     CD =  0.01105   =>   CDf =  0.00603    CDp =  0.00502

 Side 1  free  transition at x/c =  0.2527   43
 Side 2 forced transition at x/c =  1.0000   72

   4   rms: 0.2215E-02   max: 0.4246E-01   C at   43  1
       a =  6.000      CL =  0.9388
      Cm = -0.0468     CD =  0.01107   =>   CDf =  0.00598    CDp =  0.00508

 Side 1  free  transition at x/c =  0.2516   43
 Side 2 forced transition at x/c =  1.0000   72

   5   rms: 0.1720E-04   max: -.2887E-03   D at   45  1
       a =  6.000      CL =  0.9388
      Cm = -0.0468     CD =  0.01107   =>   CDf =  0.00599    CDp =  0.00507
      9.000    3.4506   0.011065   0.000000   0.000000   0.000000    0.2516     #
 Calculating wake trajectory ...
 Calculating source influence matrix ...

 Solving BL system ...

 Side 1  free  transition at x/c =  0.2516   43
 Side 2 forced transition at x/c =  1.0000   72

   1   rms: 0.2396E+00   max: 0.3588E+01   C at   43  1   RLX: 0.390
       a =  7.000      CL =  0.9755
      Cm = -0.0449     CD =  0.01181   =>   CDf =  0.00590    CDp =  0.00591

 Side 1  free  transition at x/c =  0.1981   41
 Side 2 forced transition at x/c =  1.0000   71

   2   rms: 0.1381E+00   max: 0.1109E+01   C at   41  1   RLX: 0.471
       a =  7.000      CL =  0.9978
      Cm = -0.0429     CD =  0.01280   =>   CDf =  0.00625    CDp =  0.00655

 Side 1  free  transition at x/c =  0.1671   38
 Side 2 forced transition at x/c =  1.0000   71

   3   rms: 0.5963E-01   max: -.3091E+00   D at   38  1
       a =  7.000      CL =  1.0323
      Cm = -0.0419     CD =  0.01309   =>   CDf =  0.00638    CDp =  0.00672

 Side 1  free  transition at x/c =  0.1296   36
 Side 2 forced transition at x/c =  1.0000   71

   4   rms: 0.1281E-01   max: -.1590E+00   C at   36  1
       a =  7.000      CL =  1.0275
      Cm = -0.0413     CD =  0.01343   =>   CDf =  0.00654    CDp =  0.00688

 Side 1  free  transition at x/c =  0.1312   36
 Side 2 forced transition at x/c =  1.0000   71

   5   rms: 0.1997E-02   max: 0.3820E-01   C at   36  1
       a =  7.000      CL =  1.0273
      Cm = -0.0412     CD =  0.01343   =>   CDf =  0.00653    CDp =  0.00690

 Side 1  free  transition at x/c =  0.1303   36
 Side 2 forced transition at x/c =  1.0000   71

   6   rms: 0.1950E-04   max: -.2126E-03   C at   36  1
       a =  7.000      CL =  1.0273
      Cm = -0.0412     CD =  0.01343   =>   CDf =  0.00654    CDp =  0.00690
      9.000    3.8916   0.013434   0.000000   0.000000   0.000000    0.1303     #
 Calculating wake trajectory ...
 Calculating source influence matrix ...

 Solving BL system ...

 Side 1  free  transition at x/c =  0.1303   36
 Side 2 forced transition at x/c =  1.0000   71

   1   rms: 0.2512E+00   max: 0.3471E+01   C at   36  1   RLX: 0.315
       a =  8.000      CL =  1.0536
      Cm = -0.0393     CD =  0.01435   =>   CDf =  0.00643    CDp =  0.00792

 Side 1  free  transition at x/c =  0.1060   35
 Side 2 forced transition at x/c =  1.0000   70

   2   rms: 0.1341E+00   max: -.8759E+00   D at   35  1   RLX: 0.571
       a =  8.000      CL =  1.0890
      Cm = -0.0371     CD =  0.01518   =>   CDf =  0.00664    CDp =  0.00854

 Side 1  free  transition at x/c =  0.0837   33
 Side 2 forced transition at x/c =  1.0000   70

   3   rms: 0.5700E-01   max: -.4119E+00   D at   33  1
       a =  8.000      CL =  1.1142
      Cm = -0.0352     CD =  0.01591   =>   CDf =  0.00659    CDp =  0.00932

 Side 1  free  transition at x/c =  0.0707   33
 Side 2 forced transition at x/c =  1.0000   69

   4   rms: 0.2127E-01   max: -.2657E+00   D at   33  1
       a =  8.000      CL =  1.1126
      Cm = -0.0350     CD =  0.01596   =>   CDf =  0.00671    CDp =  0.00925

 Side 1  free  transition at x/c =  0.0703   33
 Side 2 forced transition at x/c =  1.0000   69

   5   rms: 0.2880E-02   max: 0.3532E-01   C at   33  1
       a =  8.000      CL =  1.1112
      Cm = -0.0349     CD =  0.01607   =>   CDf =  0.00674    CDp =  0.00932

 Side 1  free  transition at x/c =  0.0699   33
 Side 2 forced transition at x/c =  1.0000   69

   6   rms: 0.3176E-04   max: -.5564E-03   D at   34  1
       a =  8.000      CL =  1.1112
      Cm = -0.0349     CD =  0.01607   =>   CDf =  0.00675    CDp =  0.00932
      9.000    5.2431   0.016067   0.001168   0.001771   0.000603    0.0699     #
 Calculating wake trajectory ...
 Calculating source influence matrix ...

 Solving BL system ...

 Side 1  free  transition at x/c =  0.0699   33
 Side 2 forced transition at x/c =  1.0000   69

   1   rms: 0.1815E+00   max: -.9526E+00   D at   33  1   RLX: 0.525
       a =  9.000      CL =  1.1539
      Cm = -0.0312     CD =  0.01755   =>   CDf =  0.00675    CDp =  0.01080

 Side 1  free  transition at x/c =  0.0572   32
 Side 2 forced transition at x/c =  1.0000   69

   2   rms: 0.9498E-01   max: -.8947E+00   D at   32  1   RLX: 0.559
       a =  9.000      CL =  1.1787
      Cm = -0.0305     CD =  0.01807   =>   CDf =  0.00662    CDp =  0.01145

 Side 1  free  transition at x/c =  0.0536   31
 Side 2 forced transition at x/c =  1.0000   69

   3   rms: 0.4035E-01   max: -.3886E+00   D at   32  1
       a =  9.000      CL =  1.1919
      Cm = -0.0278     CD =  0.01855   =>   CDf =  0.00643    CDp =  0.01212

 Side 1  free  transition at x/c =  0.0481   32
 Side 2 forced transition at x/c =  1.0000   68

   4   rms: 0.1176E-01   max: -.4828E-01   T at   33  1
       a =  9.000      CL =  1.1812
      Cm = -0.0264     CD =  0.01905   =>   CDf =  0.00667    CDp =  0.01237

 Side 1  free  transition at x/c =  0.0486   32
 Side 2 forced transition at x/c =  1.0000   68

   5   rms: 0.1192E-02   max: -.1271E-01   C at   68  2
       a =  9.000      CL =  1.1808
      Cm = -0.0263     CD =  0.01907   =>   CDf =  0.00667    CDp =  0.01240

 Side 1  free  transition at x/c =  0.0486   32
 Side 2 forced transition at x/c =  1.0000   68

   6   rms: 0.2056E-05   max: 0.3000E-04   D at   93  1
       a =  9.000      CL =  1.1808
      Cm = -0.0263     CD =  0.01907   =>   CDf =  0.00667    CDp =  0.01240
      9.000    6.7178   0.019067   0.001096   0.002034   0.000939    0.0486     #
 Calculating wake trajectory ...
 Calculating source influence matrix ...

 Solving BL system ...

 Side 1  free  transition at x/c =  0.0486   32
 Side 2 forced transition at x/c =  1.0000   68

   1   rms: 0.1796E+00   max: 0.7816E+00   T at   32  1   RLX: 0.776
       a = 10.000      CL =  1.2062
      Cm = -0.0157     CD =  0.02271   =>   CDf =  0.00668    CDp =  0.01603

 Side 1  free  transition at x/c =  0.0410   31
 Side 2 forced transition at x/c =  1.0000   68

   2   rms: 0.8064E-01   max: -.7073E+00   D at   31  1   RLX: 0.707
       a = 10.000      CL =  1.2172
      Cm = -0.0164     CD =  0.02326   =>   CDf =  0.00637    CDp =  0.01689

 Side 1  free  transition at x/c =  0.0405   30
 Side 2 forced transition at x/c =  1.0000   68

   3   rms: 0.3077E-01   max: -.2056E+00   D at   31  1
       a = 10.000      CL =  1.2333
      Cm = -0.0163     CD =  0.02268   =>   CDf =  0.00641    CDp =  0.01627

 Side 1  free  transition at x/c =  0.0386   30
 Side 2 forced transition at x/c =  1.0000   68

   4   rms: 0.3587E-02   max: -.1392E-01   D at   31  1
       a = 10.000      CL =  1.2297
      Cm = -0.0160     CD =  0.02298   =>   CDf =  0.00640    CDp =  0.01657

 Side 1  free  transition at x/c =  0.0387   30
 Side 2 forced transition at x/c =  1.0000   68

   5   rms: 0.3781E-04   max: 0.6883E-03   D at   88  1
       a = 10.000      CL =  1.2297
      Cm = -0.0160     CD =  0.02297   =>   CDf =  0.00640    CDp =  0.01657
      9.000    8.1244   0.022975   0.019405   0.002391  -0.017014    0.0387     #
 Calculating wake trajectory ...
 Calculating source influence matrix ...

 Solving BL system ...

 Side 1  free  transition at x/c =  0.0387   30
 Side 2 forced transition at x/c =  1.0000   68

   1   rms: 0.1491E+00   max: 0.6575E+00   T at   30  1
       a = 11.000      CL =  1.2813
      Cm = -0.0073     CD =  0.02749   =>   CDf =  0.00616    CDp =  0.02133

 Side 1  free  transition at x/c =  0.0325   30
 Side 2 forced transition at x/c =  1.0000   67

   2   rms: 0.5451E-01   max: -.3348E+00   D at   30  1
       a = 11.000      CL =  1.2568
      Cm = -0.0071     CD =  0.02897   =>   CDf =  0.00603    CDp =  0.02293

 Side 1  free  transition at x/c =  0.0330   30
 Side 2 forced transition at x/c =  1.0000   67

   3   rms: 0.1071E-01   max: -.5528E-01   D at   88  1
       a = 11.000      CL =  1.2643
      Cm = -0.0075     CD =  0.02869   =>   CDf =  0.00605    CDp =  0.02263

 Side 1  free  transition at x/c =  0.0326   30
 Side 2 forced transition at x/c =  1.0000   67

   4   rms: 0.2168E-03   max: 0.2509E-02   D at   83  1
       a = 11.000      CL =  1.2645
      Cm = -0.0075     CD =  0.02871   =>   CDf =  0.00605    CDp =  0.02266

 Side 1  free  transition at x/c =  0.0326   30
 Side 2 forced transition at x/c =  1.0000   67

   5   rms: 0.4855E-05   max: 0.1735E-04   D at   83  1
       a = 11.000      CL =  1.2645
      Cm = -0.0075     CD =  0.02871   =>   CDf =  0.00605    CDp =  0.02266
      9.000    9.3116   0.028714   0.020181   0.002760  -0.017422    0.0326     #
 Calculating wake trajectory ...
 Calculating source influence matrix ...

 Solving BL system ...

 Side 1  free  transition at x/c =  0.0326   30
 Side 2 forced transition at x/c =  1.0000   67

   1   rms: 0.1486E+00   max: 0.6021E+00   T at   30  1   RLX: 0.901
       a = 12.000      CL =  1.3012
      Cm = -0.0019     CD =  0.03475   =>   CDf =  0.00579    CDp =  0.02897

 Side 1  free  transition at x/c =  0.0289   30
 Side 2 forced transition at x/c =  1.0000   66

   2   rms: 0.3770E-01   max: 0.2102E+00   D at   82  1
       a = 12.000      CL =  1.2806
      Cm = -0.0019     CD =  0.03737   =>   CDf =  0.00574    CDp =  0.03163

 Side 1  free  transition at x/c =  0.0289   30
 Side 2 forced transition at x/c =  1.0000   66

   3   rms: 0.3425E-02   max: 0.3105E-01   D at   80  1
       a = 12.000      CL =  1.2819
      Cm = -0.0018     CD =  0.03718   =>   CDf =  0.00569    CDp =  0.03149

 Side 1  free  transition at x/c =  0.0288   30
 Side 2 forced transition at x/c =  1.0000   66

   4   rms: 0.5016E-04   max: -.6861E-03   D at   76  2
       a = 12.000      CL =  1.2819
      Cm = -0.0018     CD =  0.03719   =>   CDf =  0.00568    CDp =  0.03150
      9.000   10.2547   0.037187   0.020709   0.003100  -0.017608    0.0288     #

.OPERv   c>  
 Polar  1 newly created for accumulation
 Airfoil archived with polar: NACA 2412                                       

Enter  polar save filename  OR  <return> for no file   s>  
               Current                         Save file
           ------------------              ------------------
 name  :   NACA 2412                                       NACA 2412                                       
 Re    :        500000.                         500000.
 Mach  :         0.3000                          0.3000
 Retyp :         1                               0
 Matyp :         1                               0
 NcritT:         9.0000                          9.0000
 NcritB:         9.0000                          9.0000
 xtr T :         1.0000                          1.0000
 xtr B :         1.0000                          1.0000

 Current parameters different from old save file values.

Set current parameters to old save file values ? y/n>  